
     RDKit          3D

  9  8  0  0  0  0  0  0  0  0999 V2000
   -1.4787    0.3746   -0.1043 N   0  0  0  0  0  0  0  0  0  0  0  0
   -0.4284   -0.6027   -0.3780 C   0  0  0  0  0  0  0  0  0  0  0  0
    0.8745   -0.1259    0.1085 C   0  0  0  0  0  0  0  0  0  0  0  0
    1.9429    0.2648    0.5073 C   0  0  0  0  0  0  0  0  0  0  0  0
   -1.5205    0.5471    0.9271 H   0  0  0  0  0  0  0  0  0  0  0  0
   -1.2296    1.2787   -0.5689 H   0  0  0  0  0  0  0  0  0  0  0  0
   -0.6756   -1.5623    0.1230 H   0  0  0  0  0  0  0  0  0  0  0  0
   -0.3655   -0.7822   -1.4721 H   0  0  0  0  0  0  0  0  0  0  0  0
    2.8808    0.6080    0.8575 H   0  0  0  0  0  0  0  0  0  0  0  0
  1  2  1  0
  2  3  1  0
  3  4  3  0
  1  5  1  0
  1  6  1  0
  2  7  1  0
  2  8  1  0
  4  9  1  0
M  END
