
     RDKit          3D

 23 22  0  0  0  0  0  0  0  0999 V2000
   -3.1971   -1.1963    0.5387 C   0  0  0  0  0  0  0  0  0  0  0  0
   -2.2737   -0.0377    0.9041 C   0  0  0  0  0  0  0  0  0  0  0  0
   -1.0922    0.0566   -0.0678 C   0  0  0  0  0  0  0  0  0  0  0  0
   -0.1641    1.2216    0.3063 C   0  0  0  0  0  0  0  0  0  0  0  0
    1.0029    1.3732   -0.6811 C   0  0  0  0  0  0  0  0  0  0  0  0
    1.9427    0.2007   -0.6416 C   0  0  0  0  0  0  0  0  0  0  0  0
    2.7350   -0.0263    0.4088 C   0  0  0  0  0  0  0  0  0  0  0  0
    3.6542   -1.1685    0.4324 C   0  0  0  0  0  0  0  0  0  0  0  0
    4.3917   -1.3612    1.4338 O   0  0  0  0  0  0  0  0  0  0  0  0
   -4.0419   -1.2394    1.2580 H   0  0  0  0  0  0  0  0  0  0  0  0
   -3.6079   -1.0548   -0.4836 H   0  0  0  0  0  0  0  0  0  0  0  0
   -2.6443   -2.1589    0.5823 H   0  0  0  0  0  0  0  0  0  0  0  0
   -2.8572    0.9085    0.8785 H   0  0  0  0  0  0  0  0  0  0  0  0
   -1.8965   -0.1911    1.9387 H   0  0  0  0  0  0  0  0  0  0  0  0
   -1.4765    0.2090   -1.1005 H   0  0  0  0  0  0  0  0  0  0  0  0
   -0.5214   -0.8974   -0.0403 H   0  0  0  0  0  0  0  0  0  0  0  0
    0.2287    1.0770    1.3366 H   0  0  0  0  0  0  0  0  0  0  0  0
   -0.7491    2.1673    0.2988 H   0  0  0  0  0  0  0  0  0  0  0  0
    1.5667    2.3017   -0.4446 H   0  0  0  0  0  0  0  0  0  0  0  0
    0.6010    1.4839   -1.7116 H   0  0  0  0  0  0  0  0  0  0  0  0
    1.9846   -0.4543   -1.5044 H   0  0  0  0  0  0  0  0  0  0  0  0
    2.7071    0.6396    1.2634 H   0  0  0  0  0  0  0  0  0  0  0  0
    3.7072   -1.8531   -0.4050 H   0  0  0  0  0  0  0  0  0  0  0  0
  1  2  1  0
  2  3  1  0
  3  4  1  0
  4  5  1  0
  5  6  1  0
  6  7  2  0
  7  8  1  0
  8  9  2  0
  1 10  1  0
  1 11  1  0
  1 12  1  0
  2 13  1  0
  2 14  1  0
  3 15  1  0
  3 16  1  0
  4 17  1  0
  4 18  1  0
  5 19  1  0
  5 20  1  0
  6 21  1  0
  7 22  1  0
  8 23  1  0
M  END
