
     RDKit          3D

 25 25  0  0  0  0  0  0  0  0999 V2000
   -1.8334   -0.9167   -1.3726 C   0  0  0  0  0  0  0  0  0  0  0  0
   -1.3415    0.0036   -0.2295 C   0  0  0  0  0  0  0  0  0  0  0  0
   -1.7644    1.4479   -0.5758 C   0  0  0  0  0  0  0  0  0  0  0  0
   -2.0507   -0.4410    1.0682 C   0  0  0  0  0  0  0  0  0  0  0  0
    0.1867   -0.0499   -0.0248 C   0  0  0  0  0  0  0  0  0  0  0  0
    0.7837    0.7388    0.9854 C   0  0  0  0  0  0  0  0  0  0  0  0
    2.1643    0.7153    1.1987 C   0  0  0  0  0  0  0  0  0  0  0  0
    2.9848   -0.0956    0.4100 C   0  0  0  0  0  0  0  0  0  0  0  0
    4.3625   -0.1267    0.6141 O   0  0  0  0  0  0  0  0  0  0  0  0
    2.4179   -0.8823   -0.5927 C   0  0  0  0  0  0  0  0  0  0  0  0
    1.0372   -0.8638   -0.8119 C   0  0  0  0  0  0  0  0  0  0  0  0
   -1.3798   -0.6201   -2.3430 H   0  0  0  0  0  0  0  0  0  0  0  0
   -1.5858   -1.9793   -1.1600 H   0  0  0  0  0  0  0  0  0  0  0  0
   -2.9373   -0.8485   -1.4864 H   0  0  0  0  0  0  0  0  0  0  0  0
   -1.5392    2.1497    0.2542 H   0  0  0  0  0  0  0  0  0  0  0  0
   -2.8577    1.5030   -0.7699 H   0  0  0  0  0  0  0  0  0  0  0  0
   -1.2300    1.7993   -1.4849 H   0  0  0  0  0  0  0  0  0  0  0  0
   -1.7246   -1.4641    1.3555 H   0  0  0  0  0  0  0  0  0  0  0  0
   -1.8278    0.2455    1.9115 H   0  0  0  0  0  0  0  0  0  0  0  0
   -3.1539   -0.4515    0.9312 H   0  0  0  0  0  0  0  0  0  0  0  0
    0.1838    1.3795    1.6170 H   0  0  0  0  0  0  0  0  0  0  0  0
    2.5949    1.3295    1.9794 H   0  0  0  0  0  0  0  0  0  0  0  0
    4.8039    0.4332    1.3343 H   0  0  0  0  0  0  0  0  0  0  0  0
    3.0498   -1.5121   -1.2063 H   0  0  0  0  0  0  0  0  0  0  0  0
    0.6568   -1.4936   -1.6018 H   0  0  0  0  0  0  0  0  0  0  0  0
  1  2  1  0
  2  3  1  0
  2  4  1  0
  2  5  1  0
  5  6  2  0
  6  7  1  0
  7  8  2  0
  8  9  1  0
  8 10  1  0
 10 11  2  0
 11  5  1  0
  1 12  1  0
  1 13  1  0
  1 14  1  0
  3 15  1  0
  3 16  1  0
  3 17  1  0
  4 18  1  0
  4 19  1  0
  4 20  1  0
  6 21  1  0
  7 22  1  0
  9 23  1  0
 10 24  1  0
 11 25  1  0
M  END
