
     RDKit          3D

 18 18  0  0  0  0  0  0  0  0999 V2000
   -1.8386    2.0682   -0.3385 O   0  0  0  0  0  0  0  0  0  0  0  0
   -0.7441    1.2073   -0.2299 C   0  0  0  0  0  0  0  0  0  0  0  0
    0.5371    1.7563   -0.3366 C   0  0  0  0  0  0  0  0  0  0  0  0
    1.6697    0.9503   -0.2161 C   0  0  0  0  0  0  0  0  0  0  0  0
    1.5412   -0.4284    0.0182 C   0  0  0  0  0  0  0  0  0  0  0  0
    0.2544   -0.9839    0.1216 C   0  0  0  0  0  0  0  0  0  0  0  0
   -0.8941   -0.1827   -0.0130 C   0  0  0  0  0  0  0  0  0  0  0  0
   -2.2519   -0.8235    0.1137 C   0  0  0  0  0  0  0  0  0  0  0  0
   -2.9427   -0.4789    1.7192 Cl  0  0  0  0  0  0  0  0  0  0  0  0
    2.7077   -1.2617    0.1516 N   0  0  0  0  0  4  0  0  0  0  0  0
    2.5804   -2.6128    0.3806 O   0  0  0  0  0  1  0  0  0  0  0  0
    3.8533   -0.7731    0.0616 O   0  0  0  0  0  0  0  0  0  0  0  0
   -2.7980    1.7633   -0.2417 H   0  0  0  0  0  0  0  0  0  0  0  0
    0.6555    2.8188   -0.5084 H   0  0  0  0  0  0  0  0  0  0  0  0
    2.6471    1.4076   -0.3013 H   0  0  0  0  0  0  0  0  0  0  0  0
    0.1432   -2.0451    0.3062 H   0  0  0  0  0  0  0  0  0  0  0  0
   -2.1857   -1.9259   -0.0070 H   0  0  0  0  0  0  0  0  0  0  0  0
   -2.9346   -0.4559   -0.6800 H   0  0  0  0  0  0  0  0  0  0  0  0
  1  2  1  0
  2  3  2  0
  3  4  1  0
  4  5  2  0
  5  6  1  0
  6  7  2  0
  7  8  1  0
  8  9  1  0
  5 10  1  0
 10 11  1  0
 10 12  2  0
  7  2  1  0
  1 13  1  0
  3 14  1  0
  4 15  1  0
  6 16  1  0
  8 17  1  0
  8 18  1  0
M  CHG  2  10   1  11  -1
M  END
