
     RDKit          3D

 10  9  0  0  0  0  0  0  0  0999 V2000
   -2.0920   -0.1076   -0.0210 C   0  0  0  0  0  0  0  0  0  0  0  0
   -0.6345    0.0056    0.0323 C   0  0  0  0  0  0  0  0  0  0  0  0
    0.5667    0.0986    0.0759 C   0  0  0  0  0  0  0  0  0  0  0  0
    2.0245    0.2119    0.1292 C   0  0  0  0  0  0  0  0  0  0  0  0
    2.8152   -1.0126   -1.1416 Br  0  0  0  0  0  0  0  0  0  0  0  0
   -2.3716   -1.0257   -0.5775 H   0  0  0  0  0  0  0  0  0  0  0  0
   -2.5135    0.7799   -0.5364 H   0  0  0  0  0  0  0  0  0  0  0  0
   -2.4968   -0.1629    1.0105 H   0  0  0  0  0  0  0  0  0  0  0  0
    2.3777   -0.0372    1.1511 H   0  0  0  0  0  0  0  0  0  0  0  0
    2.3243    1.2500   -0.1224 H   0  0  0  0  0  0  0  0  0  0  0  0
  1  2  1  0
  2  3  3  0
  3  4  1  0
  4  5  1  0
  1  6  1  0
  1  7  1  0
  1  8  1  0
  4  9  1  0
  4 10  1  0
M  END
