
     RDKit          3D

 18 17  0  0  0  0  0  0  0  0999 V2000
   -1.9226   -0.9100    0.2428 C   0  0  0  0  0  0  0  0  0  0  0  0
   -1.8493    0.3652   -0.5960 C   0  0  0  0  0  0  0  0  0  0  0  0
   -0.6815    1.2718   -0.1847 C   0  0  0  0  0  0  0  0  0  0  0  0
    0.6500    0.6618   -0.5324 C   0  0  0  0  0  0  0  0  0  0  0  0
    1.0536    0.7197   -1.7255 O   0  0  0  0  0  0  0  0  0  0  0  0
    1.4730   -0.0262    0.4834 C   0  0  0  0  0  0  0  0  0  0  0  0
    2.7833   -0.6455    0.1094 C   0  0  0  0  0  0  0  0  0  0  0  0
    1.0734   -0.1036    1.6764 O   0  0  0  0  0  0  0  0  0  0  0  0
   -1.9900   -0.6598    1.3229 H   0  0  0  0  0  0  0  0  0  0  0  0
   -1.0292   -1.5450    0.0661 H   0  0  0  0  0  0  0  0  0  0  0  0
   -2.8252   -1.4899   -0.0436 H   0  0  0  0  0  0  0  0  0  0  0  0
   -2.7983    0.9284   -0.4630 H   0  0  0  0  0  0  0  0  0  0  0  0
   -1.7633    0.0976   -1.6719 H   0  0  0  0  0  0  0  0  0  0  0  0
   -0.7774    2.2383   -0.7253 H   0  0  0  0  0  0  0  0  0  0  0  0
   -0.7431    1.5047    0.9002 H   0  0  0  0  0  0  0  0  0  0  0  0
    3.4579    0.1295   -0.3111 H   0  0  0  0  0  0  0  0  0  0  0  0
    3.2704   -1.0972    0.9997 H   0  0  0  0  0  0  0  0  0  0  0  0
    2.6183   -1.4396   -0.6486 H   0  0  0  0  0  0  0  0  0  0  0  0
  1  2  1  0
  2  3  1  0
  3  4  1  0
  4  5  2  0
  4  6  1  0
  6  7  1  0
  6  8  2  0
  1  9  1  0
  1 10  1  0
  1 11  1  0
  2 12  1  0
  2 13  1  0
  3 14  1  0
  3 15  1  0
  7 16  1  0
  7 17  1  0
  7 18  1  0
M  END
