
     RDKit          3D

 23 22  0  0  0  0  0  0  0  0999 V2000
    2.1264    1.4822    0.3431 N   0  0  0  0  0  0  0  0  0  0  0  0
    2.5949    0.1086    0.5030 C   0  0  0  0  0  0  0  0  0  0  0  0
    1.9385   -0.8232   -0.5278 C   0  0  0  0  0  0  0  0  0  0  0  0
    0.5139   -1.2612   -0.1455 C   0  0  0  0  0  0  0  0  0  0  0  0
   -0.5112   -0.1220   -0.2412 C   0  0  0  0  0  0  0  0  0  0  0  0
   -1.9395   -0.6510   -0.0507 C   0  0  0  0  0  0  0  0  0  0  0  0
   -2.9767    0.4692   -0.1457 C   0  0  0  0  0  0  0  0  0  0  0  0
   -2.8156    1.3676    0.9171 O   0  0  0  0  0  0  0  0  0  0  0  0
    2.5101    1.8576   -0.5548 H   0  0  0  0  0  0  0  0  0  0  0  0
    2.5494    2.0542    1.1094 H   0  0  0  0  0  0  0  0  0  0  0  0
    2.3750   -0.2459    1.5339 H   0  0  0  0  0  0  0  0  0  0  0  0
    3.6992    0.0803    0.3654 H   0  0  0  0  0  0  0  0  0  0  0  0
    2.5624   -1.7407   -0.6009 H   0  0  0  0  0  0  0  0  0  0  0  0
    1.9404   -0.3515   -1.5348 H   0  0  0  0  0  0  0  0  0  0  0  0
    0.2129   -2.0744   -0.8421 H   0  0  0  0  0  0  0  0  0  0  0  0
    0.5121   -1.6848    0.8828 H   0  0  0  0  0  0  0  0  0  0  0  0
   -0.4311    0.3680   -1.2365 H   0  0  0  0  0  0  0  0  0  0  0  0
   -0.2999    0.6306    0.5472 H   0  0  0  0  0  0  0  0  0  0  0  0
   -2.0286   -1.1483    0.9402 H   0  0  0  0  0  0  0  0  0  0  0  0
   -2.1614   -1.4047   -0.8377 H   0  0  0  0  0  0  0  0  0  0  0  0
   -3.9938    0.0201   -0.1001 H   0  0  0  0  0  0  0  0  0  0  0  0
   -2.8691    1.0022   -1.1172 H   0  0  0  0  0  0  0  0  0  0  0  0
   -3.5082    2.0673    0.7929 H   0  0  0  0  0  0  0  0  0  0  0  0
  1  2  1  0
  2  3  1  0
  3  4  1  0
  4  5  1  0
  5  6  1  0
  6  7  1  0
  7  8  1  0
  1  9  1  0
  1 10  1  0
  2 11  1  0
  2 12  1  0
  3 13  1  0
  3 14  1  0
  4 15  1  0
  4 16  1  0
  5 17  1  0
  5 18  1  0
  6 19  1  0
  6 20  1  0
  7 21  1  0
  7 22  1  0
  8 23  1  0
M  END
