
     RDKit          3D

 23 22  0  0  0  0  0  0  0  0999 V2000
   -1.9659   -0.3546    1.2520 C   0  0  0  0  0  0  0  0  0  0  0  0
   -0.9716   -0.3278    0.0720 C   0  0  0  0  0  0  0  0  0  0  0  0
   -0.6385   -1.7856   -0.3199 C   0  0  0  0  0  0  0  0  0  0  0  0
   -1.6595    0.3926   -1.1087 C   0  0  0  0  0  0  0  0  0  0  0  0
    0.2364    0.4176    0.5090 N   0  0  0  0  0  0  0  0  0  0  0  0
    1.3551    0.4197   -0.4498 C   0  0  0  0  0  0  0  0  0  0  0  0
    2.3979    1.4608   -0.0375 C   0  0  0  0  0  0  0  0  0  0  0  0
    2.9606    1.1398    1.2062 O   0  0  0  0  0  0  0  0  0  0  0  0
   -2.2161    0.6808    1.5696 H   0  0  0  0  0  0  0  0  0  0  0  0
   -1.5268   -0.8876    2.1229 H   0  0  0  0  0  0  0  0  0  0  0  0
   -2.9082   -0.8734    0.9709 H   0  0  0  0  0  0  0  0  0  0  0  0
   -0.0775   -2.2884    0.4967 H   0  0  0  0  0  0  0  0  0  0  0  0
   -0.0278   -1.8238   -1.2464 H   0  0  0  0  0  0  0  0  0  0  0  0
   -1.5700   -2.3607   -0.5124 H   0  0  0  0  0  0  0  0  0  0  0  0
   -2.6668   -0.0376   -1.2985 H   0  0  0  0  0  0  0  0  0  0  0  0
   -1.0836    0.2844   -2.0504 H   0  0  0  0  0  0  0  0  0  0  0  0
   -1.7764    1.4747   -0.8846 H   0  0  0  0  0  0  0  0  0  0  0  0
    0.5905   -0.0077    1.3992 H   0  0  0  0  0  0  0  0  0  0  0  0
    1.8402   -0.5806   -0.4887 H   0  0  0  0  0  0  0  0  0  0  0  0
    1.0100    0.6856   -1.4685 H   0  0  0  0  0  0  0  0  0  0  0  0
    1.9143    2.4583    0.0336 H   0  0  0  0  0  0  0  0  0  0  0  0
    3.1935    1.5247   -0.8144 H   0  0  0  0  0  0  0  0  0  0  0  0
    3.5902    0.3887    1.0477 H   0  0  0  0  0  0  0  0  0  0  0  0
  1  2  1  0
  2  3  1  0
  2  4  1  0
  2  5  1  0
  5  6  1  0
  6  7  1  0
  7  8  1  0
  1  9  1  0
  1 10  1  0
  1 11  1  0
  3 12  1  0
  3 13  1  0
  3 14  1  0
  4 15  1  0
  4 16  1  0
  4 17  1  0
  5 18  1  0
  6 19  1  0
  6 20  1  0
  7 21  1  0
  7 22  1  0
  8 23  1  0
M  END
