
     RDKit          3D

 19 18  0  0  0  0  0  0  0  0999 V2000
    2.6837    0.1006   -0.0582 C   0  0  0  0  0  0  0  0  0  0  0  0
    1.2378   -0.1471   -0.4791 C   0  0  0  0  0  0  0  0  0  0  0  0
    0.2937   -0.1013    0.7338 C   0  0  0  0  0  0  0  0  0  0  0  0
   -1.1638   -0.4774    0.3969 C   0  0  0  0  0  0  0  0  0  0  0  0
   -1.2054   -1.7826   -0.1202 O   0  0  0  0  0  0  0  0  0  0  0  0
   -1.8291    0.5003   -0.5907 C   0  0  0  0  0  0  0  0  0  0  0  0
   -1.7523    1.8209   -0.1249 O   0  0  0  0  0  0  0  0  0  0  0  0
    2.7797    1.0968    0.4241 H   0  0  0  0  0  0  0  0  0  0  0  0
    3.3413    0.0741   -0.9526 H   0  0  0  0  0  0  0  0  0  0  0  0
    3.0194   -0.6850    0.6519 H   0  0  0  0  0  0  0  0  0  0  0  0
    0.9511    0.6342   -1.2143 H   0  0  0  0  0  0  0  0  0  0  0  0
    1.1766   -1.1402   -0.9742 H   0  0  0  0  0  0  0  0  0  0  0  0
    0.6618   -0.8137    1.5049 H   0  0  0  0  0  0  0  0  0  0  0  0
    0.3213    0.9141    1.1862 H   0  0  0  0  0  0  0  0  0  0  0  0
   -1.7375   -0.4451    1.3530 H   0  0  0  0  0  0  0  0  0  0  0  0
   -2.1438   -2.0964   -0.0363 H   0  0  0  0  0  0  0  0  0  0  0  0
   -1.3381    0.4384   -1.5840 H   0  0  0  0  0  0  0  0  0  0  0  0
   -2.8951    0.2134   -0.7389 H   0  0  0  0  0  0  0  0  0  0  0  0
   -2.4016    1.8962    0.6224 H   0  0  0  0  0  0  0  0  0  0  0  0
  1  2  1  0
  2  3  1  0
  3  4  1  0
  4  5  1  0
  4  6  1  0
  6  7  1  0
  1  8  1  0
  1  9  1  0
  1 10  1  0
  2 11  1  0
  2 12  1  0
  3 13  1  0
  3 14  1  0
  4 15  1  0
  5 16  1  0
  6 17  1  0
  6 18  1  0
  7 19  1  0
M  END
