
     RDKit          3D

 19 18  0  0  0  0  0  0  0  0999 V2000
   -0.1367   -0.7393   -1.2948 C   0  0  0  0  0  0  0  0  0  0  0  0
   -0.3936    0.1394   -0.0501 C   0  0  0  0  0  0  0  0  0  0  0  0
   -1.4421   -0.5609    0.8365 C   0  0  0  0  0  0  0  0  0  0  0  0
   -0.9509    1.4979   -0.5198 C   0  0  0  0  0  0  0  0  0  0  0  0
    0.8707    0.3815    0.7807 C   0  0  0  0  0  0  0  0  0  0  0  0
    0.7931    1.0947    1.7717 O   0  0  0  0  0  0  0  0  0  0  0  0
    2.2047   -0.2545    0.4813 C   0  0  0  0  0  0  0  0  0  0  0  0
    2.2793   -2.0298    1.2517 Br  0  0  0  0  0  0  0  0  0  0  0  0
   -1.0846   -0.9199   -1.8469 H   0  0  0  0  0  0  0  0  0  0  0  0
    0.5659   -0.2400   -1.9956 H   0  0  0  0  0  0  0  0  0  0  0  0
    0.2784   -1.7280   -1.0064 H   0  0  0  0  0  0  0  0  0  0  0  0
   -1.6910    0.0609    1.7237 H   0  0  0  0  0  0  0  0  0  0  0  0
   -2.3811   -0.7413    0.2696 H   0  0  0  0  0  0  0  0  0  0  0  0
   -1.0561   -1.5401    1.1943 H   0  0  0  0  0  0  0  0  0  0  0  0
   -1.2082    2.1435    0.3477 H   0  0  0  0  0  0  0  0  0  0  0  0
   -1.8711    1.3576   -1.1275 H   0  0  0  0  0  0  0  0  0  0  0  0
   -0.1992    2.0319   -1.1408 H   0  0  0  0  0  0  0  0  0  0  0  0
    2.4031   -0.3051   -0.6073 H   0  0  0  0  0  0  0  0  0  0  0  0
    3.0194    0.3515    0.9322 H   0  0  0  0  0  0  0  0  0  0  0  0
  1  2  1  0
  2  3  1  0
  2  4  1  0
  2  5  1  0
  5  6  2  0
  5  7  1  0
  7  8  1  0
  1  9  1  0
  1 10  1  0
  1 11  1  0
  3 12  1  0
  3 13  1  0
  3 14  1  0
  4 15  1  0
  4 16  1  0
  4 17  1  0
  7 18  1  0
  7 19  1  0
M  END
