
     RDKit          3D

 38 38  0  0  0  0  0  0  0  0999 V2000
   -5.9834    0.4926    0.4326 N   0  0  0  0  0  0  0  0  0  0  0  0
   -4.8947   -0.1414   -0.3079 C   0  0  0  0  0  0  0  0  0  0  0  0
   -3.5698   -0.0555    0.4643 C   0  0  0  0  0  0  0  0  0  0  0  0
   -2.4240   -0.7060   -0.3270 C   0  0  0  0  0  0  0  0  0  0  0  0
   -1.1851   -0.7901    0.4792 N   0  0  0  0  0  0  0  0  0  0  0  0
   -0.6427    0.5576    0.7890 C   0  0  0  0  0  0  0  0  0  0  0  0
    0.8551    0.5076    1.1292 C   0  0  0  0  0  0  0  0  0  0  0  0
    1.6725   -0.0461    0.0182 N   0  0  0  0  0  0  0  0  0  0  0  0
    2.4052    1.0025   -0.7231 C   0  0  0  0  0  0  0  0  0  0  0  0
    3.6942    1.4087    0.0120 C   0  0  0  0  0  0  0  0  0  0  0  0
    4.8036    0.3516   -0.0804 C   0  0  0  0  0  0  0  0  0  0  0  0
    4.4853   -0.8185    0.7344 N   0  0  0  0  0  0  0  0  0  0  0  0
    0.8990   -0.9031   -0.9079 C   0  0  0  0  0  0  0  0  0  0  0  0
   -0.1860   -1.6869   -0.1582 C   0  0  0  0  0  0  0  0  0  0  0  0
   -5.7381    1.4952    0.6023 H   0  0  0  0  0  0  0  0  0  0  0  0
   -6.0757    0.0253    1.3640 H   0  0  0  0  0  0  0  0  0  0  0  0
   -4.7876    0.3615   -1.2937 H   0  0  0  0  0  0  0  0  0  0  0  0
   -5.1565   -1.2064   -0.4906 H   0  0  0  0  0  0  0  0  0  0  0  0
   -3.3370    1.0143    0.6522 H   0  0  0  0  0  0  0  0  0  0  0  0
   -3.6782   -0.5732    1.4424 H   0  0  0  0  0  0  0  0  0  0  0  0
   -2.2418   -0.1441   -1.2710 H   0  0  0  0  0  0  0  0  0  0  0  0
   -2.7587   -1.7314   -0.6023 H   0  0  0  0  0  0  0  0  0  0  0  0
   -0.7843    1.2589   -0.0646 H   0  0  0  0  0  0  0  0  0  0  0  0
   -1.1815    0.9721    1.6677 H   0  0  0  0  0  0  0  0  0  0  0  0
    0.9946   -0.1390    2.0221 H   0  0  0  0  0  0  0  0  0  0  0  0
    1.1869    1.5268    1.4265 H   0  0  0  0  0  0  0  0  0  0  0  0
    2.6885    0.6508   -1.7417 H   0  0  0  0  0  0  0  0  0  0  0  0
    1.7602    1.8988   -0.8673 H   0  0  0  0  0  0  0  0  0  0  0  0
    4.0736    2.3427   -0.4566 H   0  0  0  0  0  0  0  0  0  0  0  0
    3.4878    1.6410    1.0783 H   0  0  0  0  0  0  0  0  0  0  0  0
    4.9749    0.0536   -1.1393 H   0  0  0  0  0  0  0  0  0  0  0  0
    5.7457    0.8090    0.2957 H   0  0  0  0  0  0  0  0  0  0  0  0
    5.3736   -1.3455    0.8979 H   0  0  0  0  0  0  0  0  0  0  0  0
    3.8763   -1.4549    0.1713 H   0  0  0  0  0  0  0  0  0  0  0  0
    0.4122   -0.2964   -1.7058 H   0  0  0  0  0  0  0  0  0  0  0  0
    1.5904   -1.6237   -1.3959 H   0  0  0  0  0  0  0  0  0  0  0  0
   -0.6541   -2.4149   -0.8576 H   0  0  0  0  0  0  0  0  0  0  0  0
    0.2995   -2.2934    0.6365 H   0  0  0  0  0  0  0  0  0  0  0  0
  1  2  1  0
  2  3  1  0
  3  4  1  0
  4  5  1  0
  5  6  1  0
  6  7  1  0
  7  8  1  0
  8  9  1  0
  9 10  1  0
 10 11  1  0
 11 12  1  0
  8 13  1  0
 13 14  1  0
 14  5  1  0
  1 15  1  0
  1 16  1  0
  2 17  1  0
  2 18  1  0
  3 19  1  0
  3 20  1  0
  4 21  1  0
  4 22  1  0
  6 23  1  0
  6 24  1  0
  7 25  1  0
  7 26  1  0
  9 27  1  0
  9 28  1  0
 10 29  1  0
 10 30  1  0
 11 31  1  0
 11 32  1  0
 12 33  1  0
 12 34  1  0
 13 35  1  0
 13 36  1  0
 14 37  1  0
 14 38  1  0
M  END
