
     RDKit          3D

 15 14  0  0  0  0  0  0  0  0999 V2000
   -1.9151   -0.2859   -0.0688 C   0  0  0  0  0  0  0  0  0  0  0  0
   -0.4781   -0.3026   -0.5868 C   0  0  0  0  0  0  0  0  0  0  0  0
    0.5288    0.1386    0.4900 C   0  0  0  0  0  0  0  0  0  0  0  0
    1.9598   -0.0194   -0.0225 C   0  0  0  0  0  0  0  0  0  0  0  0
    0.3177    1.4858    0.8284 O   0  0  0  0  0  0  0  0  0  0  0  0
   -2.2243    0.7485    0.1904 H   0  0  0  0  0  0  0  0  0  0  0  0
   -2.0111   -0.9353    0.8273 H   0  0  0  0  0  0  0  0  0  0  0  0
   -2.5974   -0.6675   -0.8574 H   0  0  0  0  0  0  0  0  0  0  0  0
   -0.4033    0.3673   -1.4713 H   0  0  0  0  0  0  0  0  0  0  0  0
   -0.2392   -1.3377   -0.9161 H   0  0  0  0  0  0  0  0  0  0  0  0
    0.4199   -0.5146    1.3888 H   0  0  0  0  0  0  0  0  0  0  0  0
    2.1204    0.6053   -0.9274 H   0  0  0  0  0  0  0  0  0  0  0  0
    2.6773    0.3002    0.7628 H   0  0  0  0  0  0  0  0  0  0  0  0
    2.1654   -1.0821   -0.2732 H   0  0  0  0  0  0  0  0  0  0  0  0
   -0.3208    1.4993    1.5885 H   0  0  0  0  0  0  0  0  0  0  0  0
  1  2  1  0
  2  3  1  0
  3  4  1  0
  3  5  1  0
  1  6  1  0
  1  7  1  0
  1  8  1  0
  2  9  1  0
  2 10  1  0
  3 11  1  0
  4 12  1  0
  4 13  1  0
  4 14  1  0
  5 15  1  0
M  END
