
     RDKit          3D

 19 19  0  0  0  0  0  0  0  0999 V2000
    2.7242   -0.9254   -0.4680 C   0  0  0  0  0  0  0  0  0  0  0  0
    2.1015    0.3803   -0.0731 C   0  0  0  0  0  0  0  0  0  0  0  0
    2.8448    1.3956    0.0138 O   0  0  0  0  0  0  0  0  0  0  0  0
    0.6466    0.5036    0.2145 C   0  0  0  0  0  0  0  0  0  0  0  0
    0.1053    1.7506    0.5820 C   0  0  0  0  0  0  0  0  0  0  0  0
   -1.2586    1.8813    0.8549 C   0  0  0  0  0  0  0  0  0  0  0  0
   -2.1019    0.7732    0.7657 C   0  0  0  0  0  0  0  0  0  0  0  0
   -1.5851   -0.4763    0.4020 C   0  0  0  0  0  0  0  0  0  0  0  0
   -0.2156   -0.6088    0.1277 C   0  0  0  0  0  0  0  0  0  0  0  0
   -2.4502   -1.6116    0.3109 N   0  0  0  0  0  0  0  0  0  0  0  0
    3.8153   -0.8018   -0.6369 H   0  0  0  0  0  0  0  0  0  0  0  0
    2.5770   -1.6729    0.3394 H   0  0  0  0  0  0  0  0  0  0  0  0
    2.2636   -1.2938   -1.4085 H   0  0  0  0  0  0  0  0  0  0  0  0
    0.7356    2.6277    0.6593 H   0  0  0  0  0  0  0  0  0  0  0  0
   -1.6627    2.8452    1.1365 H   0  0  0  0  0  0  0  0  0  0  0  0
   -3.1571    0.8877    0.9798 H   0  0  0  0  0  0  0  0  0  0  0  0
    0.1650   -1.5822   -0.1516 H   0  0  0  0  0  0  0  0  0  0  0  0
   -3.4711   -1.5236    0.5130 H   0  0  0  0  0  0  0  0  0  0  0  0
   -2.0767   -2.5488    0.0406 H   0  0  0  0  0  0  0  0  0  0  0  0
  1  2  1  0
  2  3  2  0
  2  4  1  0
  4  5  2  0
  5  6  1  0
  6  7  2  0
  7  8  1  0
  8  9  2  0
  8 10  1  0
  9  4  1  0
  1 11  1  0
  1 12  1  0
  1 13  1  0
  5 14  1  0
  6 15  1  0
  7 16  1  0
  9 17  1  0
 10 18  1  0
 10 19  1  0
M  END
