
     RDKit          3D

 17 17  0  0  0  0  0  0  0  0999 V2000
    3.1138    1.1433    0.1791 C   0  0  0  0  0  0  0  0  0  0  0  0
    2.4208   -0.0941    0.0671 O   0  0  0  0  0  0  0  0  0  0  0  0
    1.0265   -0.1775    0.0130 C   0  0  0  0  0  0  0  0  0  0  0  0
    0.2573    0.9443    0.0635 N   0  0  0  0  0  0  0  0  0  0  0  0
   -1.1014    0.8990    0.0199 C   0  0  0  0  0  0  0  0  0  0  0  0
   -1.7602   -0.3474   -0.0810 C   0  0  0  0  0  0  0  0  0  0  0  0
   -0.9734   -1.5097   -0.1502 C   0  0  0  0  0  0  0  0  0  0  0  0
    0.4177   -1.4267   -0.0989 C   0  0  0  0  0  0  0  0  0  0  0  0
   -3.1959   -0.4521   -0.1171 N   0  0  0  0  0  4  0  0  0  0  0  0
   -3.9862    0.4509    0.5551 O   0  0  0  0  0  1  0  0  0  0  0  0
   -3.7390   -1.4448   -0.6448 O   0  0  0  0  0  0  0  0  0  0  0  0
   -1.9681    2.4277    0.0225 Cl  0  0  0  0  0  0  0  0  0  0  0  0
    2.8826    1.7891   -0.6944 H   0  0  0  0  0  0  0  0  0  0  0  0
    2.8196    1.6604    1.1170 H   0  0  0  0  0  0  0  0  0  0  0  0
    4.2056    0.9488    0.2032 H   0  0  0  0  0  0  0  0  0  0  0  0
   -1.4375   -2.4848   -0.2278 H   0  0  0  0  0  0  0  0  0  0  0  0
    1.0180   -2.3265   -0.1435 H   0  0  0  0  0  0  0  0  0  0  0  0
  1  2  1  0
  2  3  1  0
  3  4  2  0
  4  5  1  0
  5  6  2  0
  6  7  1  0
  7  8  2  0
  6  9  1  0
  9 10  1  0
  9 11  2  0
  5 12  1  0
  8  3  1  0
  1 13  1  0
  1 14  1  0
  1 15  1  0
  7 16  1  0
  8 17  1  0
M  CHG  2   9   1  10  -1
M  END
