
     RDKit          3D

 20 20  0  0  0  0  0  0  0  0999 V2000
    2.6690   -0.5316    0.0063 C   0  0  0  0  0  0  0  0  0  0  0  0
    1.1979   -0.2372    0.0338 C   0  0  0  0  0  0  0  0  0  0  0  0
    0.2713   -1.2846    0.1386 C   0  0  0  0  0  0  0  0  0  0  0  0
   -1.1056   -1.0195    0.1190 C   0  0  0  0  0  0  0  0  0  0  0  0
   -1.5536    0.3054    0.0124 C   0  0  0  0  0  0  0  0  0  0  0  0
   -0.6415    1.3603   -0.1119 C   0  0  0  0  0  0  0  0  0  0  0  0
    0.7397    1.0810   -0.1102 C   0  0  0  0  0  0  0  0  0  0  0  0
   -1.1518    2.6971   -0.2375 N   0  0  0  0  0  0  0  0  0  0  0  0
   -0.4169    3.7304   -0.3548 C   0  0  0  0  0  0  0  0  0  0  0  0
    0.5133    5.0378   -0.5031 S   0  0  0  0  0  0  0  0  0  0  0  0
   -2.0917   -2.1387    0.2804 C   0  0  0  0  0  0  0  0  0  0  0  0
    2.8991   -1.4395    0.6036 H   0  0  0  0  0  0  0  0  0  0  0  0
    2.9926   -0.6965   -1.0426 H   0  0  0  0  0  0  0  0  0  0  0  0
    3.2463    0.3152    0.4349 H   0  0  0  0  0  0  0  0  0  0  0  0
    0.6215   -2.3057    0.2354 H   0  0  0  0  0  0  0  0  0  0  0  0
   -2.6159    0.5192    0.0198 H   0  0  0  0  0  0  0  0  0  0  0  0
    1.4596    1.8832   -0.2147 H   0  0  0  0  0  0  0  0  0  0  0  0
   -3.0445   -1.9002   -0.2387 H   0  0  0  0  0  0  0  0  0  0  0  0
   -1.6915   -3.0796   -0.1539 H   0  0  0  0  0  0  0  0  0  0  0  0
   -2.2972   -2.2966    1.3597 H   0  0  0  0  0  0  0  0  0  0  0  0
  1  2  1  0
  2  3  2  0
  3  4  1  0
  4  5  2  0
  5  6  1  0
  6  7  2  0
  6  8  1  0
  8  9  2  0
  9 10  2  0
  4 11  1  0
  7  2  1  0
  1 12  1  0
  1 13  1  0
  1 14  1  0
  3 15  1  0
  5 16  1  0
  7 17  1  0
 11 18  1  0
 11 19  1  0
 11 20  1  0
M  END
