
     RDKit          3D

 17 17  0  0  0  0  0  0  0  0999 V2000
    2.4221   -0.7127   -0.2864 C   0  0  0  0  0  0  0  0  0  0  0  0
    1.0761   -0.1087   -0.0137 C   0  0  0  0  0  0  0  0  0  0  0  0
   -0.0936   -0.8280   -0.3068 C   0  0  0  0  0  0  0  0  0  0  0  0
   -1.3607   -0.2565   -0.0889 C   0  0  0  0  0  0  0  0  0  0  0  0
   -1.4392    1.0547    0.4158 C   0  0  0  0  0  0  0  0  0  0  0  0
   -0.2761    1.7781    0.6905 C   0  0  0  0  0  0  0  0  0  0  0  0
    0.9771    1.2032    0.4713 C   0  0  0  0  0  0  0  0  0  0  0  0
   -2.5564   -1.0026   -0.3824 N   0  0  0  0  0  4  0  0  0  0  0  0
   -2.4776   -2.2850   -0.8755 O   0  0  0  0  0  1  0  0  0  0  0  0
   -3.6835   -0.4995   -0.1938 O   0  0  0  0  0  0  0  0  0  0  0  0
    3.1872   -0.2949    0.4022 H   0  0  0  0  0  0  0  0  0  0  0  0
    2.3940   -1.8135   -0.1399 H   0  0  0  0  0  0  0  0  0  0  0  0
    2.7194   -0.4940   -1.3333 H   0  0  0  0  0  0  0  0  0  0  0  0
   -0.0126   -1.8323   -0.7038 H   0  0  0  0  0  0  0  0  0  0  0  0
   -2.3992    1.5222    0.5932 H   0  0  0  0  0  0  0  0  0  0  0  0
   -0.3466    2.7890    1.0711 H   0  0  0  0  0  0  0  0  0  0  0  0
    1.8695    1.7803    0.6804 H   0  0  0  0  0  0  0  0  0  0  0  0
  1  2  1  0
  2  3  2  0
  3  4  1  0
  4  5  2  0
  5  6  1  0
  6  7  2  0
  4  8  1  0
  8  9  1  0
  8 10  2  0
  7  2  1  0
  1 11  1  0
  1 12  1  0
  1 13  1  0
  3 14  1  0
  5 15  1  0
  6 16  1  0
  7 17  1  0
M  CHG  2   8   1   9  -1
M  END
