
     RDKit          3D

 24 23  0  0  0  0  0  0  0  0999 V2000
    1.0264   -1.8707   -0.2413 C   0  0  0  0  0  0  0  0  0  0  0  0
    0.3886   -0.4723   -0.2711 C   0  0  0  0  0  0  0  0  0  0  0  0
    1.0285    0.4388    0.7986 C   0  0  0  0  0  0  0  0  0  0  0  0
    2.4426    0.8058    0.4329 C   0  0  0  0  0  0  0  0  0  0  0  0
    3.4929    0.3394    1.1142 C   0  0  0  0  0  0  0  0  0  0  0  0
   -1.1041   -0.5868   -0.0372 C   0  0  0  0  0  0  0  0  0  0  0  0
   -2.0316    0.3560   -0.3206 C   0  0  0  0  0  0  0  0  0  0  0  0
   -3.4615    0.0738    0.0549 C   0  0  0  0  0  0  0  0  0  0  0  0
   -1.7410    1.6875   -0.9118 C   0  0  0  0  0  0  0  0  0  0  0  0
   -0.6217    1.9870   -1.4022 O   0  0  0  0  0  0  0  0  0  0  0  0
    2.1068   -1.8107   -0.4908 H   0  0  0  0  0  0  0  0  0  0  0  0
    0.9164   -2.3351    0.7626 H   0  0  0  0  0  0  0  0  0  0  0  0
    0.5405   -2.5279   -0.9943 H   0  0  0  0  0  0  0  0  0  0  0  0
    0.5734   -0.0701   -1.2894 H   0  0  0  0  0  0  0  0  0  0  0  0
    0.9869   -0.0575    1.7942 H   0  0  0  0  0  0  0  0  0  0  0  0
    0.4555    1.3846    0.8937 H   0  0  0  0  0  0  0  0  0  0  0  0
    2.6119    1.4438   -0.4296 H   0  0  0  0  0  0  0  0  0  0  0  0
    3.3617   -0.3167    1.9692 H   0  0  0  0  0  0  0  0  0  0  0  0
    4.4989    0.6121    0.8125 H   0  0  0  0  0  0  0  0  0  0  0  0
   -1.4531   -1.5127    0.4099 H   0  0  0  0  0  0  0  0  0  0  0  0
   -3.5990    0.2439    1.1434 H   0  0  0  0  0  0  0  0  0  0  0  0
   -3.7315   -0.9770   -0.1862 H   0  0  0  0  0  0  0  0  0  0  0  0
   -4.1607    0.7341   -0.5010 H   0  0  0  0  0  0  0  0  0  0  0  0
   -2.5270    2.4307   -0.9451 H   0  0  0  0  0  0  0  0  0  0  0  0
  1  2  1  0
  2  3  1  0
  3  4  1  0
  4  5  2  3
  2  6  1  0
  6  7  2  0
  7  8  1  0
  7  9  1  0
  9 10  2  0
  1 11  1  0
  1 12  1  0
  1 13  1  0
  2 14  1  0
  3 15  1  0
  3 16  1  0
  4 17  1  0
  5 18  1  0
  5 19  1  0
  6 20  1  0
  8 21  1  0
  8 22  1  0
  8 23  1  0
  9 24  1  0
M  END
