
     RDKit          3D

 15 15  0  0  0  0  0  0  0  0999 V2000
   -2.9772    0.2788   -0.2578 O   0  0  0  0  0  0  0  0  0  0  0  0
   -1.5918    0.1520   -0.1397 C   0  0  0  0  0  0  0  0  0  0  0  0
   -0.7680    1.1274   -0.7194 C   0  0  0  0  0  0  0  0  0  0  0  0
   -1.5294    2.6111   -1.6590 Br  0  0  0  0  0  0  0  0  0  0  0  0
    0.6232    1.0276   -0.6178 C   0  0  0  0  0  0  0  0  0  0  0  0
    1.2149   -0.0478    0.0644 C   0  0  0  0  0  0  0  0  0  0  0  0
    0.3859   -1.0240    0.6445 C   0  0  0  0  0  0  0  0  0  0  0  0
   -1.0072   -0.9304    0.5466 C   0  0  0  0  0  0  0  0  0  0  0  0
   -2.0661   -2.3024    1.3651 Br  0  0  0  0  0  0  0  0  0  0  0  0
    2.6476   -0.1457    0.1660 N   0  0  0  0  0  4  0  0  0  0  0  0
    3.4562    0.8116   -0.4030 O   0  0  0  0  0  1  0  0  0  0  0  0
    3.1799   -1.0993    0.7712 O   0  0  0  0  0  0  0  0  0  0  0  0
   -3.6265   -0.3891    0.1368 H   0  0  0  0  0  0  0  0  0  0  0  0
    1.2390    1.7923   -1.0732 H   0  0  0  0  0  0  0  0  0  0  0  0
    0.8195   -1.8620    1.1753 H   0  0  0  0  0  0  0  0  0  0  0  0
  1  2  1  0
  2  3  2  0
  3  4  1  0
  3  5  1  0
  5  6  2  0
  6  7  1  0
  7  8  2  0
  8  9  1  0
  6 10  1  0
 10 11  1  0
 10 12  2  0
  8  2  1  0
  1 13  1  0
  5 14  1  0
  7 15  1  0
M  CHG  2  10   1  11  -1
M  END
