
     RDKit          3D

 20 20  0  0  0  0  0  0  0  0999 V2000
   -2.4544    0.4093    0.6129 C   0  0  0  0  0  0  0  0  0  0  0  0
   -0.9793    0.4048    0.3071 C   0  0  0  0  0  0  0  0  0  0  0  0
   -0.2458    1.5944    0.4385 C   0  0  0  0  0  0  0  0  0  0  0  0
    1.1211    1.6228    0.1589 C   0  0  0  0  0  0  0  0  0  0  0  0
    1.7879    0.4622   -0.2608 C   0  0  0  0  0  0  0  0  0  0  0  0
    1.0569   -0.7308   -0.3990 C   0  0  0  0  0  0  0  0  0  0  0  0
   -0.3217   -0.7707   -0.1253 C   0  0  0  0  0  0  0  0  0  0  0  0
   -1.0685   -2.0699   -0.2812 C   0  0  0  0  0  0  0  0  0  0  0  0
    3.1990    0.4973   -0.5451 N   0  0  0  0  0  4  0  0  0  0  0  0
    3.9110    1.6671   -0.4084 O   0  0  0  0  0  1  0  0  0  0  0  0
    3.7997   -0.5312   -0.9198 O   0  0  0  0  0  0  0  0  0  0  0  0
   -3.0297    0.1970   -0.3123 H   0  0  0  0  0  0  0  0  0  0  0  0
   -2.7880    1.3916    1.0101 H   0  0  0  0  0  0  0  0  0  0  0  0
   -2.6864   -0.3623    1.3764 H   0  0  0  0  0  0  0  0  0  0  0  0
   -0.7318    2.5072    0.7605 H   0  0  0  0  0  0  0  0  0  0  0  0
    1.6567    2.5564    0.2725 H   0  0  0  0  0  0  0  0  0  0  0  0
    1.5617   -1.6329   -0.7220 H   0  0  0  0  0  0  0  0  0  0  0  0
   -1.9281   -1.9337   -0.9702 H   0  0  0  0  0  0  0  0  0  0  0  0
   -0.4207   -2.8688   -0.7008 H   0  0  0  0  0  0  0  0  0  0  0  0
   -1.4396   -2.4100    0.7081 H   0  0  0  0  0  0  0  0  0  0  0  0
  1  2  1  0
  2  3  2  0
  3  4  1  0
  4  5  2  0
  5  6  1  0
  6  7  2  0
  7  8  1  0
  5  9  1  0
  9 10  1  0
  9 11  2  0
  7  2  1  0
  1 12  1  0
  1 13  1  0
  1 14  1  0
  3 15  1  0
  4 16  1  0
  6 17  1  0
  8 18  1  0
  8 19  1  0
  8 20  1  0
M  CHG  2   9   1  10  -1
M  END
