
     RDKit          3D

 16 16  0  0  0  0  0  0  0  0999 V2000
    3.6699    0.2243   -0.0115 O   0  0  0  0  0  1  0  0  0  0  0  0
    2.5799   -0.6020   -0.1634 N   0  0  0  0  0  4  0  0  0  0  0  0
    2.7719   -1.8102   -0.4133 O   0  0  0  0  0  0  0  0  0  0  0  0
    1.2438   -0.0811   -0.0360 C   0  0  0  0  0  0  0  0  0  0  0  0
    0.1260   -0.9235   -0.1907 C   0  0  0  0  0  0  0  0  0  0  0  0
   -1.1775   -0.4163   -0.0667 C   0  0  0  0  0  0  0  0  0  0  0  0
   -1.3618    0.9473    0.2149 C   0  0  0  0  0  0  0  0  0  0  0  0
   -0.2582    1.7884    0.3696 C   0  0  0  0  0  0  0  0  0  0  0  0
    1.0368    1.2803    0.2455 C   0  0  0  0  0  0  0  0  0  0  0  0
   -2.3303   -1.3209   -0.2335 C   0  0  0  0  0  0  0  0  0  0  0  0
   -3.5116   -0.8960   -0.1282 O   0  0  0  0  0  0  0  0  0  0  0  0
    0.2683   -1.9753   -0.4079 H   0  0  0  0  0  0  0  0  0  0  0  0
   -2.3566    1.3630    0.3154 H   0  0  0  0  0  0  0  0  0  0  0  0
   -0.4069    2.8384    0.5865 H   0  0  0  0  0  0  0  0  0  0  0  0
    1.8755    1.9529    0.3698 H   0  0  0  0  0  0  0  0  0  0  0  0
   -2.1689   -2.3692   -0.4503 H   0  0  0  0  0  0  0  0  0  0  0  0
  1  2  1  0
  2  3  2  0
  2  4  1  0
  4  5  2  0
  5  6  1  0
  6  7  2  0
  7  8  1  0
  8  9  2  0
  6 10  1  0
 10 11  2  0
  9  4  1  0
  5 12  1  0
  7 13  1  0
  8 14  1  0
  9 15  1  0
 10 16  1  0
M  CHG  2   1  -1   2   1
M  END
