
     RDKit          3D

 20 20  0  0  0  0  0  0  0  0999 V2000
    2.9379   -0.2240    0.3861 C   0  0  0  0  0  0  0  0  0  0  0  0
    2.0740   -0.0210   -0.8542 C   0  0  0  0  0  0  0  0  0  0  0  0
    0.6148    0.0179   -0.4870 C   0  0  0  0  0  0  0  0  0  0  0  0
   -0.1344   -1.1668   -0.4358 C   0  0  0  0  0  0  0  0  0  0  0  0
   -1.4818   -1.1354   -0.0650 C   0  0  0  0  0  0  0  0  0  0  0  0
   -2.1020    0.0821    0.2709 C   0  0  0  0  0  0  0  0  0  0  0  0
   -1.3432    1.2650    0.2313 C   0  0  0  0  0  0  0  0  0  0  0  0
    0.0042    1.2321   -0.1397 C   0  0  0  0  0  0  0  0  0  0  0  0
   -3.4891    0.1192    0.6537 N   0  0  0  0  0  4  0  0  0  0  0  0
   -4.0919    1.3117    0.9831 O   0  0  0  0  0  1  0  0  0  0  0  0
   -4.1676   -0.9283    0.6920 O   0  0  0  0  0  0  0  0  0  0  0  0
    4.0087   -0.2497    0.0934 H   0  0  0  0  0  0  0  0  0  0  0  0
    2.6813   -1.1847    0.8815 H   0  0  0  0  0  0  0  0  0  0  0  0
    2.7850    0.6108    1.1031 H   0  0  0  0  0  0  0  0  0  0  0  0
    2.2655   -0.8469   -1.5735 H   0  0  0  0  0  0  0  0  0  0  0  0
    2.3680    0.9274   -1.3545 H   0  0  0  0  0  0  0  0  0  0  0  0
    0.3256   -2.1160   -0.6821 H   0  0  0  0  0  0  0  0  0  0  0  0
   -2.0375   -2.0639   -0.0381 H   0  0  0  0  0  0  0  0  0  0  0  0
   -1.7899    2.2162    0.4900 H   0  0  0  0  0  0  0  0  0  0  0  0
    0.5723    2.1541   -0.1551 H   0  0  0  0  0  0  0  0  0  0  0  0
  1  2  1  0
  2  3  1  0
  3  4  2  0
  4  5  1  0
  5  6  2  0
  6  7  1  0
  7  8  2  0
  6  9  1  0
  9 10  1  0
  9 11  2  0
  8  3  1  0
  1 12  1  0
  1 13  1  0
  1 14  1  0
  2 15  1  0
  2 16  1  0
  4 17  1  0
  5 18  1  0
  7 19  1  0
  8 20  1  0
M  CHG  2   9   1  10  -1
M  END
