
     RDKit          3D

 16 16  0  0  0  0  0  0  0  0999 V2000
   -3.4939   -1.1543    0.7536 O   0  0  0  0  0  1  0  0  0  0  0  0
   -2.8501   -0.0697    0.2030 N   0  0  0  0  0  4  0  0  0  0  0  0
   -3.5357    0.8739   -0.2426 O   0  0  0  0  0  0  0  0  0  0  0  0
   -1.4126   -0.0256    0.1426 C   0  0  0  0  0  0  0  0  0  0  0  0
   -0.6467   -1.0905    0.6457 C   0  0  0  0  0  0  0  0  0  0  0  0
    0.7496   -1.0513    0.5889 C   0  0  0  0  0  0  0  0  0  0  0  0
    1.4112    0.0537    0.0278 C   0  0  0  0  0  0  0  0  0  0  0  0
    0.6452    1.1198   -0.4759 C   0  0  0  0  0  0  0  0  0  0  0  0
   -0.7509    1.0806   -0.4191 C   0  0  0  0  0  0  0  0  0  0  0  0
    2.8491    0.0903   -0.0289 N   0  0  0  0  0  4  0  0  0  0  0  0
    3.5953   -0.9552    0.4652 O   0  0  0  0  0  1  0  0  0  0  0  0
    3.4423    1.0699   -0.5265 O   0  0  0  0  0  0  0  0  0  0  0  0
   -1.1265   -1.9559    1.0841 H   0  0  0  0  0  0  0  0  0  0  0  0
    1.3111   -1.8875    0.9850 H   0  0  0  0  0  0  0  0  0  0  0  0
    1.1255    1.9852   -0.9143 H   0  0  0  0  0  0  0  0  0  0  0  0
   -1.3129    1.9167   -0.8151 H   0  0  0  0  0  0  0  0  0  0  0  0
  1  2  1  0
  2  3  2  0
  2  4  1  0
  4  5  2  0
  5  6  1  0
  6  7  2  0
  7  8  1  0
  8  9  2  0
  7 10  1  0
 10 11  1  0
 10 12  2  0
  9  4  1  0
  5 13  1  0
  6 14  1  0
  8 15  1  0
  9 16  1  0
M  CHG  4   1  -1   2   1  10   1  11  -1
M  END
