
     RDKit          3D

 15 15  0  0  0  0  0  0  0  0999 V2000
   -3.1026   -0.0967    0.0941 O   0  0  0  0  0  0  0  0  0  0  0  0
   -2.0504    0.6555   -0.4250 C   0  0  0  0  0  0  0  0  0  0  0  0
   -2.3178    1.6679   -1.1244 O   0  0  0  0  0  0  0  0  0  0  0  0
   -0.6409    0.2630   -0.1852 C   0  0  0  0  0  0  0  0  0  0  0  0
   -0.3106   -1.1036   -0.1687 C   0  0  0  0  0  0  0  0  0  0  0  0
    1.0071   -1.5148    0.0336 C   0  0  0  0  0  0  0  0  0  0  0  0
    2.0139   -0.5701    0.2225 C   0  0  0  0  0  0  0  0  0  0  0  0
    1.7105    0.7941    0.2142 C   0  0  0  0  0  0  0  0  0  0  0  0
    0.3836    1.2223    0.0116 C   0  0  0  0  0  0  0  0  0  0  0  0
    0.0207    2.9505    0.0696 Cl  0  0  0  0  0  0  0  0  0  0  0  0
    3.0169    1.9453    0.4689 Cl  0  0  0  0  0  0  0  0  0  0  0  0
   -2.9441   -0.8851    0.7095 H   0  0  0  0  0  0  0  0  0  0  0  0
   -1.0689   -1.8581   -0.3363 H   0  0  0  0  0  0  0  0  0  0  0  0
    1.2492   -2.5698    0.0379 H   0  0  0  0  0  0  0  0  0  0  0  0
    3.0333   -0.9003    0.3778 H   0  0  0  0  0  0  0  0  0  0  0  0
  1  2  1  0
  2  3  2  0
  2  4  1  0
  4  5  2  0
  5  6  1  0
  6  7  2  0
  7  8  1  0
  8  9  2  0
  9 10  1  0
  8 11  1  0
  9  4  1  0
  1 12  1  0
  5 13  1  0
  6 14  1  0
  7 15  1  0
M  END
