
     RDKit          3D

 15 15  0  0  0  0  0  0  0  0999 V2000
   -2.3718   -0.9871   -1.2054 O   0  0  0  0  0  0  0  0  0  0  0  0
   -1.3048   -0.2953   -0.6364 C   0  0  0  0  0  0  0  0  0  0  0  0
   -1.3710    1.0964   -0.5169 C   0  0  0  0  0  0  0  0  0  0  0  0
   -0.3083    1.8030    0.0517 C   0  0  0  0  0  0  0  0  0  0  0  0
    0.8257    1.1217    0.5036 C   0  0  0  0  0  0  0  0  0  0  0  0
    0.9052   -0.2753    0.3897 C   0  0  0  0  0  0  0  0  0  0  0  0
   -0.1680   -0.9811   -0.1837 C   0  0  0  0  0  0  0  0  0  0  0  0
    2.1089   -0.9774    0.8716 C   0  0  0  0  0  0  0  0  0  0  0  0
    2.2107   -2.2300    0.7836 O   0  0  0  0  0  0  0  0  0  0  0  0
   -2.3558   -1.9952   -1.3067 H   0  0  0  0  0  0  0  0  0  0  0  0
   -2.2464    1.6300   -0.8649 H   0  0  0  0  0  0  0  0  0  0  0  0
   -0.3633    2.8802    0.1424 H   0  0  0  0  0  0  0  0  0  0  0  0
    1.6406    1.6849    0.9419 H   0  0  0  0  0  0  0  0  0  0  0  0
   -0.1258   -2.0590   -0.2804 H   0  0  0  0  0  0  0  0  0  0  0  0
    2.9240   -0.4156    1.3099 H   0  0  0  0  0  0  0  0  0  0  0  0
  1  2  1  0
  2  3  2  0
  3  4  1  0
  4  5  2  0
  5  6  1  0
  6  7  2  0
  6  8  1  0
  8  9  2  0
  7  2  1  0
  1 10  1  0
  3 11  1  0
  4 12  1  0
  5 13  1  0
  7 14  1  0
  8 15  1  0
M  END
