
     RDKit          3D

 25 25  0  0  0  0  0  0  0  0999 V2000
   -1.7314   -1.4458    0.3908 C   0  0  0  0  0  0  0  0  0  0  0  0
   -1.7979   -0.1001   -0.3512 C   0  0  0  0  0  0  0  0  0  0  0  0
   -1.9135    1.0430    0.6786 C   0  0  0  0  0  0  0  0  0  0  0  0
   -2.9593   -0.1198   -1.1476 O   0  0  0  0  0  0  0  0  0  0  0  0
   -0.5593    0.0865   -1.2750 C   0  0  0  0  0  0  0  0  0  0  0  0
    0.7671    0.0811   -0.5487 C   0  0  0  0  0  0  0  0  0  0  0  0
    1.3108    1.2782   -0.0513 C   0  0  0  0  0  0  0  0  0  0  0  0
    2.5342    1.2699    0.6255 C   0  0  0  0  0  0  0  0  0  0  0  0
    3.2261    0.0697    0.8076 C   0  0  0  0  0  0  0  0  0  0  0  0
    2.6966   -1.1243    0.3111 C   0  0  0  0  0  0  0  0  0  0  0  0
    1.4735   -1.1206   -0.3663 C   0  0  0  0  0  0  0  0  0  0  0  0
   -1.6048   -2.2803   -0.3317 H   0  0  0  0  0  0  0  0  0  0  0  0
   -0.8894   -1.4666    1.1147 H   0  0  0  0  0  0  0  0  0  0  0  0
   -2.6730   -1.6182    0.9555 H   0  0  0  0  0  0  0  0  0  0  0  0
   -1.8973    2.0300    0.1689 H   0  0  0  0  0  0  0  0  0  0  0  0
   -2.8695    0.9572    1.2385 H   0  0  0  0  0  0  0  0  0  0  0  0
   -1.0803    1.0081    1.4121 H   0  0  0  0  0  0  0  0  0  0  0  0
   -3.0311    0.7567   -1.6100 H   0  0  0  0  0  0  0  0  0  0  0  0
   -0.5578   -0.7156   -2.0460 H   0  0  0  0  0  0  0  0  0  0  0  0
   -0.6587    1.0422   -1.8357 H   0  0  0  0  0  0  0  0  0  0  0  0
    0.7865    2.2161   -0.1858 H   0  0  0  0  0  0  0  0  0  0  0  0
    2.9461    2.1946    1.0088 H   0  0  0  0  0  0  0  0  0  0  0  0
    4.1729    0.0651    1.3319 H   0  0  0  0  0  0  0  0  0  0  0  0
    3.2341   -2.0532    0.4511 H   0  0  0  0  0  0  0  0  0  0  0  0
    1.0756   -2.0536   -0.7457 H   0  0  0  0  0  0  0  0  0  0  0  0
  1  2  1  0
  2  3  1  0
  2  4  1  0
  2  5  1  0
  5  6  1  0
  6  7  2  0
  7  8  1  0
  8  9  2  0
  9 10  1  0
 10 11  2  0
 11  6  1  0
  1 12  1  0
  1 13  1  0
  1 14  1  0
  3 15  1  0
  3 16  1  0
  3 17  1  0
  4 18  1  0
  5 19  1  0
  5 20  1  0
  7 21  1  0
  8 22  1  0
  9 23  1  0
 10 24  1  0
 11 25  1  0
M  END
