
     RDKit          3D

 24 25  0  0  0  0  0  0  0  0999 V2000
    0.0835   -1.5352    0.4081 C   0  0  0  0  0  0  0  0  0  0  0  0
   -1.1556   -0.7395    0.1018 C   0  0  0  0  0  0  0  0  0  0  0  0
   -1.8057   -0.0187    1.1178 C   0  0  0  0  0  0  0  0  0  0  0  0
   -2.9374    0.7481    0.8234 C   0  0  0  0  0  0  0  0  0  0  0  0
   -3.4218    0.8081   -0.4862 C   0  0  0  0  0  0  0  0  0  0  0  0
   -2.7731    0.1042   -1.5046 C   0  0  0  0  0  0  0  0  0  0  0  0
   -1.6411   -0.6639   -1.2147 C   0  0  0  0  0  0  0  0  0  0  0  0
    1.3051   -0.6911    0.1956 C   0  0  0  0  0  0  0  0  0  0  0  0
    1.7957    0.1313    1.2211 C   0  0  0  0  0  0  0  0  0  0  0  0
    2.9132    0.9330    0.9798 C   0  0  0  0  0  0  0  0  0  0  0  0
    3.5236    0.9147   -0.2754 C   0  0  0  0  0  0  0  0  0  0  0  0
    3.0019    0.0925   -1.2766 C   0  0  0  0  0  0  0  0  0  0  0  0
    1.9126   -0.6815   -1.0236 N   0  0  0  0  0  0  0  0  0  0  0  0
    0.0544   -1.9095    1.4551 H   0  0  0  0  0  0  0  0  0  0  0  0
    0.1309   -2.4317   -0.2480 H   0  0  0  0  0  0  0  0  0  0  0  0
   -1.4355   -0.0495    2.1351 H   0  0  0  0  0  0  0  0  0  0  0  0
   -3.4368    1.2987    1.6101 H   0  0  0  0  0  0  0  0  0  0  0  0
   -4.2971    1.4032   -0.7126 H   0  0  0  0  0  0  0  0  0  0  0  0
   -3.1454    0.1565   -2.5195 H   0  0  0  0  0  0  0  0  0  0  0  0
   -1.1419   -1.1970   -2.0143 H   0  0  0  0  0  0  0  0  0  0  0  0
    1.3170    0.1520    2.1922 H   0  0  0  0  0  0  0  0  0  0  0  0
    3.3033    1.5697    1.7633 H   0  0  0  0  0  0  0  0  0  0  0  0
    4.3894    1.5337   -0.4718 H   0  0  0  0  0  0  0  0  0  0  0  0
    3.4608    0.0717   -2.2560 H   0  0  0  0  0  0  0  0  0  0  0  0
  1  2  1  0
  2  3  2  0
  3  4  1  0
  4  5  2  0
  5  6  1  0
  6  7  2  0
  1  8  1  0
  8  9  2  0
  9 10  1  0
 10 11  2  0
 11 12  1  0
 12 13  2  0
  7  2  1  0
 13  8  1  0
  1 14  1  0
  1 15  1  0
  3 16  1  0
  4 17  1  0
  5 18  1  0
  6 19  1  0
  7 20  1  0
  9 21  1  0
 10 22  1  0
 11 23  1  0
 12 24  1  0
M  END
