
     RDKit          3D

 25 25  0  0  0  0  0  0  0  0999 V2000
   -2.6511   -2.1614   -3.4530 C   0  0  0  0  0  0  0  0  0  0  0  0
   -2.4628   -2.8489   -2.1055 C   0  0  0  0  0  0  0  0  0  0  0  0
   -1.3702   -2.2713   -1.3935 O   0  0  0  0  0  0  0  0  0  0  0  0
   -1.4401   -1.0329   -0.7460 C   0  0  0  0  0  0  0  0  0  0  0  0
   -2.5211   -0.3813   -0.7247 O   0  0  0  0  0  0  0  0  0  0  0  0
   -0.2337   -0.5103   -0.0832 C   0  0  0  0  0  0  0  0  0  0  0  0
   -0.2146    0.6781    0.5374 C   0  0  0  0  0  0  0  0  0  0  0  0
    0.9855    1.2408    1.2044 C   0  0  0  0  0  0  0  0  0  0  0  0
    2.0582    0.4365    1.6430 C   0  0  0  0  0  0  0  0  0  0  0  0
    3.1623    1.0154    2.2771 C   0  0  0  0  0  0  0  0  0  0  0  0
    3.2070    2.3949    2.4887 C   0  0  0  0  0  0  0  0  0  0  0  0
    2.1442    3.1990    2.0728 C   0  0  0  0  0  0  0  0  0  0  0  0
    1.0374    2.6261    1.4391 C   0  0  0  0  0  0  0  0  0  0  0  0
   -3.4679   -2.6604   -4.0156 H   0  0  0  0  0  0  0  0  0  0  0  0
   -2.9181   -1.0937   -3.3096 H   0  0  0  0  0  0  0  0  0  0  0  0
   -1.7140   -2.2263   -4.0454 H   0  0  0  0  0  0  0  0  0  0  0  0
   -2.2417   -3.9227   -2.2814 H   0  0  0  0  0  0  0  0  0  0  0  0
   -3.3958   -2.7832   -1.5044 H   0  0  0  0  0  0  0  0  0  0  0  0
    0.6582   -1.1182   -0.1398 H   0  0  0  0  0  0  0  0  0  0  0  0
   -1.1086    1.2912    0.5232 H   0  0  0  0  0  0  0  0  0  0  0  0
    2.0434   -0.6377    1.5235 H   0  0  0  0  0  0  0  0  0  0  0  0
    3.9814    0.3919    2.6116 H   0  0  0  0  0  0  0  0  0  0  0  0
    4.0623    2.8397    2.9808 H   0  0  0  0  0  0  0  0  0  0  0  0
    2.1768    4.2675    2.2424 H   0  0  0  0  0  0  0  0  0  0  0  0
    0.2230    3.2673    1.1237 H   0  0  0  0  0  0  0  0  0  0  0  0
  1  2  1  0
  2  3  1  0
  3  4  1  0
  4  5  2  0
  4  6  1  0
  6  7  2  0
  7  8  1  0
  8  9  2  0
  9 10  1  0
 10 11  2  0
 11 12  1  0
 12 13  2  0
 13  8  1  0
  1 14  1  0
  1 15  1  0
  1 16  1  0
  2 17  1  0
  2 18  1  0
  6 19  1  0
  7 20  1  0
  9 21  1  0
 10 22  1  0
 11 23  1  0
 12 24  1  0
 13 25  1  0
M  END
