
     RDKit          3D

 18 18  0  0  0  0  0  0  0  0999 V2000
    2.4062    1.4458    1.5822 Br  0  0  0  0  0  0  0  0  0  0  0  0
    2.5069   -0.0755    0.3804 C   0  0  0  0  0  0  0  0  0  0  0  0
    1.5695    0.0913   -0.8171 C   0  0  0  0  0  0  0  0  0  0  0  0
    0.1214    0.0213   -0.4048 C   0  0  0  0  0  0  0  0  0  0  0  0
   -0.6333    1.1963   -0.2458 C   0  0  0  0  0  0  0  0  0  0  0  0
   -1.9708    1.1254    0.1563 C   0  0  0  0  0  0  0  0  0  0  0  0
   -2.5627   -0.1158    0.4056 C   0  0  0  0  0  0  0  0  0  0  0  0
   -1.8177   -1.2885    0.2547 C   0  0  0  0  0  0  0  0  0  0  0  0
   -0.4799   -1.2223   -0.1469 C   0  0  0  0  0  0  0  0  0  0  0  0
    3.5526   -0.1557    0.0156 H   0  0  0  0  0  0  0  0  0  0  0  0
    2.2628   -1.0035    0.9400 H   0  0  0  0  0  0  0  0  0  0  0  0
    1.7876    1.0552   -1.3267 H   0  0  0  0  0  0  0  0  0  0  0  0
    1.7780   -0.7168   -1.5517 H   0  0  0  0  0  0  0  0  0  0  0  0
   -0.1865    2.1654   -0.4304 H   0  0  0  0  0  0  0  0  0  0  0  0
   -2.5479    2.0331    0.2765 H   0  0  0  0  0  0  0  0  0  0  0  0
   -3.5978   -0.1687    0.7173 H   0  0  0  0  0  0  0  0  0  0  0  0
   -2.2764   -2.2491    0.4507 H   0  0  0  0  0  0  0  0  0  0  0  0
    0.0879   -2.1380   -0.2559 H   0  0  0  0  0  0  0  0  0  0  0  0
  1  2  1  0
  2  3  1  0
  3  4  1  0
  4  5  2  0
  5  6  1  0
  6  7  2  0
  7  8  1  0
  8  9  2  0
  9  4  1  0
  2 10  1  0
  2 11  1  0
  3 12  1  0
  3 13  1  0
  5 14  1  0
  6 15  1  0
  7 16  1  0
  8 17  1  0
  9 18  1  0
M  END
