
     RDKit          3D

 20 20  0  0  0  0  0  0  0  0999 V2000
    3.2700    0.4214   -0.0232 C   0  0  0  0  0  0  0  0  0  0  0  0
    1.7885    0.1883   -0.0488 C   0  0  0  0  0  0  0  0  0  0  0  0
    1.0309    0.5762   -1.1643 C   0  0  0  0  0  0  0  0  0  0  0  0
   -0.3443    0.3268   -1.2041 C   0  0  0  0  0  0  0  0  0  0  0  0
   -0.9753   -0.3352   -0.1394 C   0  0  0  0  0  0  0  0  0  0  0  0
   -2.4599   -0.5721   -0.1681 C   0  0  0  0  0  0  0  0  0  0  0  0
   -3.1604    0.5992    0.3470 N   0  0  0  0  0  0  0  0  0  0  0  0
   -0.2164   -0.7255    0.9750 C   0  0  0  0  0  0  0  0  0  0  0  0
    1.1587   -0.4759    1.0147 C   0  0  0  0  0  0  0  0  0  0  0  0
    3.5328    1.3361   -0.5962 H   0  0  0  0  0  0  0  0  0  0  0  0
    3.7885   -0.4501   -0.4744 H   0  0  0  0  0  0  0  0  0  0  0  0
    3.6276    0.5557    1.0200 H   0  0  0  0  0  0  0  0  0  0  0  0
    1.5036    1.0752   -2.0013 H   0  0  0  0  0  0  0  0  0  0  0  0
   -0.9166    0.6466   -2.0663 H   0  0  0  0  0  0  0  0  0  0  0  0
   -2.7877   -0.7683   -1.2127 H   0  0  0  0  0  0  0  0  0  0  0  0
   -2.7235   -1.4693    0.4362 H   0  0  0  0  0  0  0  0  0  0  0  0
   -4.1867    0.4268    0.2442 H   0  0  0  0  0  0  0  0  0  0  0  0
   -2.9723    0.6670    1.3740 H   0  0  0  0  0  0  0  0  0  0  0  0
   -0.6887   -1.2256    1.8116 H   0  0  0  0  0  0  0  0  0  0  0  0
    1.7311   -0.7970    1.8762 H   0  0  0  0  0  0  0  0  0  0  0  0
  1  2  1  0
  2  3  2  0
  3  4  1  0
  4  5  2  0
  5  6  1  0
  6  7  1  0
  5  8  1  0
  8  9  2  0
  9  2  1  0
  1 10  1  0
  1 11  1  0
  1 12  1  0
  3 13  1  0
  4 14  1  0
  6 15  1  0
  6 16  1  0
  7 17  1  0
  7 18  1  0
  8 19  1  0
  9 20  1  0
M  END
