
     RDKit          3D

 14 14  0  0  0  0  0  0  0  0999 V2000
   -3.6299   -0.0274   -0.0649 Cl  0  0  0  0  0  0  0  0  0  0  0  0
   -1.8761   -0.0122   -0.0328 C   0  0  0  0  0  0  0  0  0  0  0  0
   -1.1935    1.1316    0.3932 C   0  0  0  0  0  0  0  0  0  0  0  0
    0.2047    1.1453    0.4193 C   0  0  0  0  0  0  0  0  0  0  0  0
    0.9326    0.0133    0.0190 C   0  0  0  0  0  0  0  0  0  0  0  0
    2.4062    0.0452    0.0529 C   0  0  0  0  0  0  0  0  0  0  0  0
    3.0869   -0.9543   -0.3001 O   0  0  0  0  0  0  0  0  0  0  0  0
    0.2397   -1.1336   -0.4083 C   0  0  0  0  0  0  0  0  0  0  0  0
   -1.1586   -1.1438   -0.4332 C   0  0  0  0  0  0  0  0  0  0  0  0
   -1.7445    2.0101    0.7041 H   0  0  0  0  0  0  0  0  0  0  0  0
    0.7180    2.0394    0.7520 H   0  0  0  0  0  0  0  0  0  0  0  0
    2.9207    0.9380    0.3851 H   0  0  0  0  0  0  0  0  0  0  0  0
    0.7767   -2.0200   -0.7223 H   0  0  0  0  0  0  0  0  0  0  0  0
   -1.6828   -2.0315   -0.7638 H   0  0  0  0  0  0  0  0  0  0  0  0
  1  2  1  0
  2  3  2  0
  3  4  1  0
  4  5  2  0
  5  6  1  0
  6  7  2  0
  5  8  1  0
  8  9  2  0
  9  2  1  0
  3 10  1  0
  4 11  1  0
  6 12  1  0
  8 13  1  0
  9 14  1  0
M  END
