
     RDKit          3D

 19 19  0  0  0  0  0  0  0  0999 V2000
    3.4321   -0.0947    0.5273 C   0  0  0  0  0  0  0  0  0  0  0  0
    2.4136   -0.8094   -0.1649 O   0  0  0  0  0  0  0  0  0  0  0  0
    1.0548   -0.4607   -0.1544 C   0  0  0  0  0  0  0  0  0  0  0  0
    0.1587   -1.2539   -0.8806 C   0  0  0  0  0  0  0  0  0  0  0  0
   -1.2051   -0.9476   -0.9025 C   0  0  0  0  0  0  0  0  0  0  0  0
   -1.6901    0.1690   -0.2061 C   0  0  0  0  0  0  0  0  0  0  0  0
   -3.1585    0.4753   -0.1968 C   0  0  0  0  0  0  0  0  0  0  0  0
   -0.7988    0.9568    0.5373 C   0  0  0  0  0  0  0  0  0  0  0  0
    0.5654    0.6503    0.5592 C   0  0  0  0  0  0  0  0  0  0  0  0
    4.4089   -0.5873    0.3444 H   0  0  0  0  0  0  0  0  0  0  0  0
    3.2290   -0.1021    1.6191 H   0  0  0  0  0  0  0  0  0  0  0  0
    3.4854    0.9503    0.1553 H   0  0  0  0  0  0  0  0  0  0  0  0
    0.5213   -2.1148   -1.4279 H   0  0  0  0  0  0  0  0  0  0  0  0
   -1.8819   -1.5807   -1.4631 H   0  0  0  0  0  0  0  0  0  0  0  0
   -3.6416   -0.0589    0.6478 H   0  0  0  0  0  0  0  0  0  0  0  0
   -3.6321    0.1524   -1.1484 H   0  0  0  0  0  0  0  0  0  0  0  0
   -3.3304    1.5667   -0.0812 H   0  0  0  0  0  0  0  0  0  0  0  0
   -1.1596    1.8093    1.0996 H   0  0  0  0  0  0  0  0  0  0  0  0
    1.2289    1.2801    1.1359 H   0  0  0  0  0  0  0  0  0  0  0  0
  1  2  1  0
  2  3  1  0
  3  4  2  0
  4  5  1  0
  5  6  2  0
  6  7  1  0
  6  8  1  0
  8  9  2  0
  9  3  1  0
  1 10  1  0
  1 11  1  0
  1 12  1  0
  4 13  1  0
  5 14  1  0
  7 15  1  0
  7 16  1  0
  7 17  1  0
  8 18  1  0
  9 19  1  0
M  END
