
     RDKit          3D

 12 11  0  0  0  0  0  0  0  0999 V2000
    1.3516    0.1026   -0.2681 C   0  0  0  0  0  0  0  0  0  0  0  0
    0.0129   -0.1109    0.4361 C   0  0  0  0  0  0  0  0  0  0  0  0
   -1.1206   -0.2375   -0.5846 C   0  0  0  0  0  0  0  0  0  0  0  0
   -0.2336    0.9730    1.2926 O   0  0  0  0  0  0  0  0  0  0  0  0
    1.5765   -0.7554   -0.9371 H   0  0  0  0  0  0  0  0  0  0  0  0
    2.1636    0.1823    0.4856 H   0  0  0  0  0  0  0  0  0  0  0  0
    1.3305    1.0369   -0.8694 H   0  0  0  0  0  0  0  0  0  0  0  0
    0.0775   -1.0551    1.0256 H   0  0  0  0  0  0  0  0  0  0  0  0
   -0.9305   -1.0933   -1.2670 H   0  0  0  0  0  0  0  0  0  0  0  0
   -2.0829   -0.4161   -0.0596 H   0  0  0  0  0  0  0  0  0  0  0  0
   -1.2091    0.6937   -1.1845 H   0  0  0  0  0  0  0  0  0  0  0  0
   -0.9358    0.6799    1.9306 H   0  0  0  0  0  0  0  0  0  0  0  0
  1  2  1  0
  2  3  1  0
  2  4  1  0
  1  5  1  0
  1  6  1  0
  1  7  1  0
  2  8  1  0
  3  9  1  0
  3 10  1  0
  3 11  1  0
  4 12  1  0
M  END
