
     RDKit          3D

 15 15  0  0  0  0  0  0  0  0999 V2000
    3.3885   -0.7459   -0.5197 O   0  0  0  0  0  0  0  0  0  0  0  0
    2.6700    0.2235   -0.1577 C   0  0  0  0  0  0  0  0  0  0  0  0
    1.2037    0.0948   -0.0730 C   0  0  0  0  0  0  0  0  0  0  0  0
    0.5604   -1.1139   -0.3934 C   0  0  0  0  0  0  0  0  0  0  0  0
   -0.8318   -1.2167   -0.3069 C   0  0  0  0  0  0  0  0  0  0  0  0
   -1.5940   -0.1149    0.0999 C   0  0  0  0  0  0  0  0  0  0  0  0
   -0.9588    1.0910    0.4202 C   0  0  0  0  0  0  0  0  0  0  0  0
    0.4332    1.1954    0.3342 C   0  0  0  0  0  0  0  0  0  0  0  0
   -3.0268   -0.2218    0.1886 C   0  0  0  0  0  0  0  0  0  0  0  0
   -4.1787   -0.3076    0.2599 N   0  0  0  0  0  0  0  0  0  0  0  0
    3.1462    1.1629    0.0933 H   0  0  0  0  0  0  0  0  0  0  0  0
    1.1315   -1.9777   -0.7101 H   0  0  0  0  0  0  0  0  0  0  0  0
   -1.3131   -2.1546   -0.5571 H   0  0  0  0  0  0  0  0  0  0  0  0
   -1.5388    1.9499    0.7361 H   0  0  0  0  0  0  0  0  0  0  0  0
    0.9086    2.1357    0.5856 H   0  0  0  0  0  0  0  0  0  0  0  0
  1  2  2  0
  2  3  1  0
  3  4  2  0
  4  5  1  0
  5  6  2  0
  6  7  1  0
  7  8  2  0
  6  9  1  0
  9 10  3  0
  8  3  1  0
  2 11  1  0
  4 12  1  0
  5 13  1  0
  7 14  1  0
  8 15  1  0
M  END
