
     RDKit          3D

 17 16  0  0  0  0  0  0  0  0999 V2000
   -2.3733    0.4293   -0.1453 C   0  0  0  0  0  0  0  0  0  0  0  0
   -1.0117   -0.0880    0.3094 C   0  0  0  0  0  0  0  0  0  0  0  0
    0.0354    0.0537   -0.8082 C   0  0  0  0  0  0  0  0  0  0  0  0
    1.4276   -0.4662   -0.4015 C   0  0  0  0  0  0  0  0  0  0  0  0
    1.3597   -1.8001    0.0274 O   0  0  0  0  0  0  0  0  0  0  0  0
    2.0074    0.3551    0.6700 C   0  0  0  0  0  0  0  0  0  0  0  0
    2.4832    1.0293    1.5491 C   0  0  0  0  0  0  0  0  0  0  0  0
   -3.1087    0.3152    0.6789 H   0  0  0  0  0  0  0  0  0  0  0  0
   -2.7321   -0.1485   -1.0237 H   0  0  0  0  0  0  0  0  0  0  0  0
   -2.3069    1.5048   -0.4155 H   0  0  0  0  0  0  0  0  0  0  0  0
   -1.1153   -1.1563    0.5980 H   0  0  0  0  0  0  0  0  0  0  0  0
   -0.6939    0.4890    1.2044 H   0  0  0  0  0  0  0  0  0  0  0  0
   -0.3065   -0.5168   -1.6996 H   0  0  0  0  0  0  0  0  0  0  0  0
    0.1178    1.1221   -1.1085 H   0  0  0  0  0  0  0  0  0  0  0  0
    2.1072   -0.3904   -1.2807 H   0  0  0  0  0  0  0  0  0  0  0  0
    1.2097   -2.3532   -0.7835 H   0  0  0  0  0  0  0  0  0  0  0  0
    2.9003    1.6212    2.3208 H   0  0  0  0  0  0  0  0  0  0  0  0
  1  2  1  0
  2  3  1  0
  3  4  1  0
  4  5  1  0
  4  6  1  0
  6  7  3  0
  1  8  1  0
  1  9  1  0
  1 10  1  0
  2 11  1  0
  2 12  1  0
  3 13  1  0
  3 14  1  0
  4 15  1  0
  5 16  1  0
  7 17  1  0
M  END
