
     RDKit          3D

 20 19  0  0  0  0  0  0  0  0999 V2000
   -2.7349   -0.8413    0.5920 C   0  0  0  0  0  0  0  0  0  0  0  0
   -1.5152   -0.6540   -0.3111 C   0  0  0  0  0  0  0  0  0  0  0  0
   -0.3156   -0.0278    0.4218 C   0  0  0  0  0  0  0  0  0  0  0  0
   -0.5723    1.4428    0.7775 C   0  0  0  0  0  0  0  0  0  0  0  0
    0.8293   -0.1225   -0.4276 O   0  0  0  0  0  0  0  0  0  0  0  0
    2.1463    0.0027    0.0297 C   0  0  0  0  0  0  0  0  0  0  0  0
    3.2717   -0.0854   -0.9439 C   0  0  0  0  0  0  0  0  0  0  0  0
    2.3942    0.1390    1.2586 O   0  0  0  0  0  0  0  0  0  0  0  0
   -2.4605   -1.4131    1.5039 H   0  0  0  0  0  0  0  0  0  0  0  0
   -3.1637    0.1394    0.8839 H   0  0  0  0  0  0  0  0  0  0  0  0
   -3.5161   -1.4081    0.0428 H   0  0  0  0  0  0  0  0  0  0  0  0
   -1.7958   -0.0322   -1.1892 H   0  0  0  0  0  0  0  0  0  0  0  0
   -1.2141   -1.6544   -0.6919 H   0  0  0  0  0  0  0  0  0  0  0  0
   -0.1276   -0.6052    1.3549 H   0  0  0  0  0  0  0  0  0  0  0  0
   -1.4005    1.5314    1.5102 H   0  0  0  0  0  0  0  0  0  0  0  0
    0.3326    1.8885    1.2403 H   0  0  0  0  0  0  0  0  0  0  0  0
   -0.8242    2.0250   -0.1344 H   0  0  0  0  0  0  0  0  0  0  0  0
    4.0929    0.5978   -0.6406 H   0  0  0  0  0  0  0  0  0  0  0  0
    2.9202    0.2044   -1.9563 H   0  0  0  0  0  0  0  0  0  0  0  0
    3.6531   -1.1270   -0.9748 H   0  0  0  0  0  0  0  0  0  0  0  0
  1  2  1  0
  2  3  1  0
  3  4  1  0
  3  5  1  0
  5  6  1  0
  6  7  1  0
  6  8  2  0
  1  9  1  0
  1 10  1  0
  1 11  1  0
  2 12  1  0
  2 13  1  0
  3 14  1  0
  4 15  1  0
  4 16  1  0
  4 17  1  0
  7 18  1  0
  7 19  1  0
  7 20  1  0
M  END
