
     RDKit          3D

 11 10  0  0  0  0  0  0  0  0999 V2000
    1.2652    0.2181   -0.2166 C   0  0  0  0  0  0  0  0  0  0  0  0
    0.0727   -0.5807    0.3059 C   0  0  0  0  0  0  0  0  0  0  0  0
   -1.2629    0.0194   -0.1374 C   0  0  0  0  0  0  0  0  0  0  0  0
   -1.6948    1.8525    0.8839 I   0  0  0  0  0  0  0  0  0  0  0  0
    2.2080   -0.2775    0.0970 H   0  0  0  0  0  0  0  0  0  0  0  0
    1.2579    1.2490    0.1947 H   0  0  0  0  0  0  0  0  0  0  0  0
    1.2428    0.2652   -1.3262 H   0  0  0  0  0  0  0  0  0  0  0  0
    0.1120   -0.6277    1.4154 H   0  0  0  0  0  0  0  0  0  0  0  0
    0.1450   -1.6190   -0.0838 H   0  0  0  0  0  0  0  0  0  0  0  0
   -2.0788   -0.6950    0.1015 H   0  0  0  0  0  0  0  0  0  0  0  0
   -1.2669    0.1956   -1.2343 H   0  0  0  0  0  0  0  0  0  0  0  0
  1  2  1  0
  2  3  1  0
  3  4  1  0
  1  5  1  0
  1  6  1  0
  1  7  1  0
  2  8  1  0
  2  9  1  0
  3 10  1  0
  3 11  1  0
M  END
