
     RDKit          3D

  9  8  0  0  0  0  0  0  0  0999 V2000
   -1.0003    0.0932   -0.0957 C   0  0  0  0  0  0  0  0  0  0  0  0
    0.4108   -0.4811   -0.0964 C   0  0  0  0  0  0  0  0  0  0  0  0
    1.3794    0.5328    0.3347 C   0  0  0  0  0  0  0  0  0  0  0  0
    2.1438    1.3324    0.6748 N   0  0  0  0  0  0  0  0  0  0  0  0
   -1.2819    0.4267    0.9263 H   0  0  0  0  0  0  0  0  0  0  0  0
   -1.7183   -0.6874   -0.4242 H   0  0  0  0  0  0  0  0  0  0  0  0
   -1.0680    0.9543   -0.7950 H   0  0  0  0  0  0  0  0  0  0  0  0
    0.6738   -0.8226   -1.1197 H   0  0  0  0  0  0  0  0  0  0  0  0
    0.4607   -1.3483    0.5953 H   0  0  0  0  0  0  0  0  0  0  0  0
  1  2  1  0
  2  3  1  0
  3  4  3  0
  1  5  1  0
  1  6  1  0
  1  7  1  0
  2  8  1  0
  2  9  1  0
M  END
