
     RDKit          3D

 10  9  0  0  0  0  0  0  0  0999 V2000
   -1.2463   -0.3071   -1.3877 O   0  0  0  0  0  0  0  0  0  0  0  0
   -0.8550    0.2654   -0.1712 C   0  0  0  0  0  0  0  0  0  0  0  0
    0.6252    0.5029   -0.1767 C   0  0  0  0  0  0  0  0  0  0  0  0
    1.4929   -0.5104   -0.2439 C   0  0  0  0  0  0  0  0  0  0  0  0
   -2.2266   -0.4477   -1.3222 H   0  0  0  0  0  0  0  0  0  0  0  0
   -1.3774    1.2374   -0.0303 H   0  0  0  0  0  0  0  0  0  0  0  0
   -1.1198   -0.4094    0.6734 H   0  0  0  0  0  0  0  0  0  0  0  0
    0.9998    1.5201   -0.1097 H   0  0  0  0  0  0  0  0  0  0  0  0
    1.1473   -1.5383   -0.3031 H   0  0  0  0  0  0  0  0  0  0  0  0
    2.5599   -0.3130   -0.2392 H   0  0  0  0  0  0  0  0  0  0  0  0
  1  2  1  0
  2  3  1  0
  3  4  2  3
  1  5  1  0
  2  6  1  0
  2  7  1  0
  3  8  1  0
  4  9  1  0
  4 10  1  0
M  END
