
     RDKit          3D

  8  7  0  0  0  0  0  0  0  0999 V2000
   -1.0770   -0.0846   -0.0475 C   0  0  0  0  0  0  0  0  0  0  0  0
    0.1924   -0.6470   -0.3575 O   0  0  0  0  0  0  0  0  0  0  0  0
    1.3942   -0.0245   -0.0126 C   0  0  0  0  0  0  0  0  0  0  0  0
    1.4040    1.0784    0.5970 O   0  0  0  0  0  0  0  0  0  0  0  0
   -1.1852    0.0273    1.0522 H   0  0  0  0  0  0  0  0  0  0  0  0
   -1.1841    0.9062   -0.5379 H   0  0  0  0  0  0  0  0  0  0  0  0
   -1.8754   -0.7584   -0.4205 H   0  0  0  0  0  0  0  0  0  0  0  0
    2.3310   -0.4974   -0.2733 H   0  0  0  0  0  0  0  0  0  0  0  0
  1  2  1  0
  2  3  1  0
  3  4  2  0
  1  5  1  0
  1  6  1  0
  1  7  1  0
  3  8  1  0
M  END
