
     RDKit          3D

 17 16  0  0  0  0  0  0  0  0999 V2000
   -1.5576    0.7668   -0.8489 C   0  0  0  0  0  0  0  0  0  0  0  0
   -0.5335    0.1772    0.1297 C   0  0  0  0  0  0  0  0  0  0  0  0
   -0.8675   -1.2973    0.4039 C   0  0  0  0  0  0  0  0  0  0  0  0
    0.8960    0.3515   -0.4371 C   0  0  0  0  0  0  0  0  0  0  0  0
    2.0106    0.0270    0.5655 C   0  0  0  0  0  0  0  0  0  0  0  0
    2.0465    1.2897    2.0398 Br  0  0  0  0  0  0  0  0  0  0  0  0
   -1.3532    1.8461   -1.0156 H   0  0  0  0  0  0  0  0  0  0  0  0
   -1.5157    0.2383   -1.8257 H   0  0  0  0  0  0  0  0  0  0  0  0
   -2.5845    0.6749   -0.4347 H   0  0  0  0  0  0  0  0  0  0  0  0
   -0.6256    0.7396    1.0839 H   0  0  0  0  0  0  0  0  0  0  0  0
   -0.7111   -1.9125   -0.5081 H   0  0  0  0  0  0  0  0  0  0  0  0
   -0.2387   -1.6972    1.2252 H   0  0  0  0  0  0  0  0  0  0  0  0
   -1.9268   -1.3985    0.7234 H   0  0  0  0  0  0  0  0  0  0  0  0
    1.0374    1.4024   -0.7727 H   0  0  0  0  0  0  0  0  0  0  0  0
    1.0211   -0.2969   -1.3320 H   0  0  0  0  0  0  0  0  0  0  0  0
    2.9892    0.0938    0.0449 H   0  0  0  0  0  0  0  0  0  0  0  0
    1.9135   -1.0049    0.9584 H   0  0  0  0  0  0  0  0  0  0  0  0
  1  2  1  0
  2  3  1  0
  2  4  1  0
  4  5  1  0
  5  6  1  0
  1  7  1  0
  1  8  1  0
  1  9  1  0
  2 10  1  0
  3 11  1  0
  3 12  1  0
  3 13  1  0
  4 14  1  0
  4 15  1  0
  5 16  1  0
  5 17  1  0
M  END
