
     RDKit          3D

 16 15  0  0  0  0  0  0  0  0999 V2000
   -1.5798   -0.4874   -0.8341 C   0  0  0  0  0  0  0  0  0  0  0  0
   -1.1933    0.8738   -0.2563 C   0  0  0  0  0  0  0  0  0  0  0  0
   -0.0510    0.7681    0.7629 C   0  0  0  0  0  0  0  0  0  0  0  0
    1.2465    0.3620    0.1112 C   0  0  0  0  0  0  0  0  0  0  0  0
    1.8897   -0.9597    0.4102 C   0  0  0  0  0  0  0  0  0  0  0  0
    1.7924    1.1260   -0.6704 O   0  0  0  0  0  0  0  0  0  0  0  0
   -2.4417   -0.3660   -1.5235 H   0  0  0  0  0  0  0  0  0  0  0  0
   -0.7328   -0.9240   -1.4042 H   0  0  0  0  0  0  0  0  0  0  0  0
   -1.8721   -1.1840   -0.0198 H   0  0  0  0  0  0  0  0  0  0  0  0
   -2.0824    1.3074    0.2504 H   0  0  0  0  0  0  0  0  0  0  0  0
   -0.9069    1.5608   -1.0823 H   0  0  0  0  0  0  0  0  0  0  0  0
    0.0927    1.7580    1.2472 H   0  0  0  0  0  0  0  0  0  0  0  0
   -0.3346    0.0517    1.5640 H   0  0  0  0  0  0  0  0  0  0  0  0
    2.8933   -0.7926    0.8542 H   0  0  0  0  0  0  0  0  0  0  0  0
    2.0003   -1.5386   -0.5306 H   0  0  0  0  0  0  0  0  0  0  0  0
    1.2797   -1.5555    1.1209 H   0  0  0  0  0  0  0  0  0  0  0  0
  1  2  1  0
  2  3  1  0
  3  4  1  0
  4  5  1  0
  4  6  2  0
  1  7  1  0
  1  8  1  0
  1  9  1  0
  2 10  1  0
  2 11  1  0
  3 12  1  0
  3 13  1  0
  5 14  1  0
  5 15  1  0
  5 16  1  0
M  END
