
     RDKit          3D

 19 18  0  0  0  0  0  0  0  0999 V2000
   -2.1806   -0.7420    0.5121 C   0  0  0  0  0  0  0  0  0  0  0  0
   -1.0024    0.1890    0.2006 C   0  0  0  0  0  0  0  0  0  0  0  0
   -0.9143    0.4366   -1.3127 C   0  0  0  0  0  0  0  0  0  0  0  0
    0.3084   -0.4094    0.7528 C   0  0  0  0  0  0  0  0  0  0  0  0
    1.4613    0.5537    0.6409 C   0  0  0  0  0  0  0  0  0  0  0  0
    2.6468    0.2227   -0.2143 C   0  0  0  0  0  0  0  0  0  0  0  0
    1.4414    1.6007    1.2707 O   0  0  0  0  0  0  0  0  0  0  0  0
   -2.0359   -1.7327    0.0296 H   0  0  0  0  0  0  0  0  0  0  0  0
   -2.2751   -0.8876    1.6094 H   0  0  0  0  0  0  0  0  0  0  0  0
   -3.1296   -0.2979    0.1425 H   0  0  0  0  0  0  0  0  0  0  0  0
   -1.1982    1.1615    0.7050 H   0  0  0  0  0  0  0  0  0  0  0  0
   -0.1171    1.1754   -1.5396 H   0  0  0  0  0  0  0  0  0  0  0  0
   -0.6928   -0.5090   -1.8528 H   0  0  0  0  0  0  0  0  0  0  0  0
   -1.8743    0.8485   -1.6906 H   0  0  0  0  0  0  0  0  0  0  0  0
    0.5456   -1.3532    0.2136 H   0  0  0  0  0  0  0  0  0  0  0  0
    0.1797   -0.6651    1.8272 H   0  0  0  0  0  0  0  0  0  0  0  0
    3.3753    1.0614   -0.2174 H   0  0  0  0  0  0  0  0  0  0  0  0
    3.1472   -0.6864    0.1796 H   0  0  0  0  0  0  0  0  0  0  0  0
    2.3147    0.0340   -1.2566 H   0  0  0  0  0  0  0  0  0  0  0  0
  1  2  1  0
  2  3  1  0
  2  4  1  0
  4  5  1  0
  5  6  1  0
  5  7  2  0
  1  8  1  0
  1  9  1  0
  1 10  1  0
  2 11  1  0
  3 12  1  0
  3 13  1  0
  3 14  1  0
  4 15  1  0
  4 16  1  0
  6 17  1  0
  6 18  1  0
  6 19  1  0
M  END
