
     RDKit          3D

 17 16  0  0  0  0  0  0  0  0999 V2000
   -1.4009   -1.2455    0.0388 C   0  0  0  0  0  0  0  0  0  0  0  0
   -0.9525    0.2132   -0.0894 C   0  0  0  0  0  0  0  0  0  0  0  0
   -1.7835    1.1099    0.8260 C   0  0  0  0  0  0  0  0  0  0  0  0
    0.4249    0.3393    0.2657 O   0  0  0  0  0  0  0  0  0  0  0  0
    1.4771   -0.0693   -0.5617 C   0  0  0  0  0  0  0  0  0  0  0  0
    2.8826    0.0791   -0.0876 C   0  0  0  0  0  0  0  0  0  0  0  0
    1.2535   -0.5140   -1.7203 O   0  0  0  0  0  0  0  0  0  0  0  0
   -0.8232   -1.8872   -0.6585 H   0  0  0  0  0  0  0  0  0  0  0  0
   -1.2382   -1.6105    1.0755 H   0  0  0  0  0  0  0  0  0  0  0  0
   -2.4783   -1.3405   -0.2151 H   0  0  0  0  0  0  0  0  0  0  0  0
   -1.1039    0.5544   -1.1378 H   0  0  0  0  0  0  0  0  0  0  0  0
   -1.6583    0.8049    1.8872 H   0  0  0  0  0  0  0  0  0  0  0  0
   -1.4527    2.1647    0.7177 H   0  0  0  0  0  0  0  0  0  0  0  0
   -2.8589    1.0493    0.5537 H   0  0  0  0  0  0  0  0  0  0  0  0
    3.2997    1.0370   -0.4616 H   0  0  0  0  0  0  0  0  0  0  0  0
    3.5025   -0.7627   -0.4622 H   0  0  0  0  0  0  0  0  0  0  0  0
    2.9101    0.0780    1.0222 H   0  0  0  0  0  0  0  0  0  0  0  0
  1  2  1  0
  2  3  1  0
  2  4  1  0
  4  5  1  0
  5  6  1  0
  5  7  2  0
  1  8  1  0
  1  9  1  0
  1 10  1  0
  2 11  1  0
  3 12  1  0
  3 13  1  0
  3 14  1  0
  6 15  1  0
  6 16  1  0
  6 17  1  0
M  END
