
     RDKit          3D

 15 14  0  0  0  0  0  0  0  0999 V2000
   -1.7628   -0.6584    0.4744 C   0  0  0  0  0  0  0  0  0  0  0  0
   -1.0059    0.5773    0.0639 C   0  0  0  0  0  0  0  0  0  0  0  0
   -1.6361    1.7497    0.0020 C   0  0  0  0  0  0  0  0  0  0  0  0
    0.3593    0.5446   -0.2645 O   0  0  0  0  0  0  0  0  0  0  0  0
    1.2494   -0.5029    0.0099 C   0  0  0  0  0  0  0  0  0  0  0  0
    2.6170   -0.4660   -0.5826 C   0  0  0  0  0  0  0  0  0  0  0  0
    0.9485   -1.4286    0.8105 O   0  0  0  0  0  0  0  0  0  0  0  0
   -1.4626   -1.5153   -0.1640 H   0  0  0  0  0  0  0  0  0  0  0  0
   -2.8597   -0.5240    0.3561 H   0  0  0  0  0  0  0  0  0  0  0  0
   -1.5488   -0.8911    1.5383 H   0  0  0  0  0  0  0  0  0  0  0  0
   -2.6872    1.8389    0.2474 H   0  0  0  0  0  0  0  0  0  0  0  0
   -1.0992    2.6420   -0.2937 H   0  0  0  0  0  0  0  0  0  0  0  0
    2.6001    0.0987   -1.5382 H   0  0  0  0  0  0  0  0  0  0  0  0
    2.9751   -1.4979   -0.7830 H   0  0  0  0  0  0  0  0  0  0  0  0
    3.3127    0.0331    0.1235 H   0  0  0  0  0  0  0  0  0  0  0  0
  1  2  1  0
  2  3  2  3
  2  4  1  0
  4  5  1  0
  5  6  1  0
  5  7  2  0
  1  8  1  0
  1  9  1  0
  1 10  1  0
  3 11  1  0
  3 12  1  0
  6 13  1  0
  6 14  1  0
  6 15  1  0
M  END
