
     RDKit          3D

 16 16  0  0  0  0  0  0  0  0999 V2000
    2.6246   -1.8323    1.1953 O   0  0  0  0  0  1  0  0  0  0  0  0
    2.5165   -0.5744    0.6474 N   0  0  0  0  0  4  0  0  0  0  0  0
    3.5489    0.1167    0.5221 O   0  0  0  0  0  0  0  0  0  0  0  0
    1.2367   -0.0659    0.2269 C   0  0  0  0  0  0  0  0  0  0  0  0
    1.1260    1.2180   -0.3324 C   0  0  0  0  0  0  0  0  0  0  0  0
   -0.1157    1.7071   -0.7386 C   0  0  0  0  0  0  0  0  0  0  0  0
   -1.2652    0.9270   -0.5947 C   0  0  0  0  0  0  0  0  0  0  0  0
   -2.4525    1.4417   -1.0028 F   0  0  0  0  0  0  0  0  0  0  0  0
   -1.1814   -0.3660   -0.0358 C   0  0  0  0  0  0  0  0  0  0  0  0
    0.0773   -0.8491    0.3706 C   0  0  0  0  0  0  0  0  0  0  0  0
   -2.3534   -1.1915    0.1237 N   0  0  0  0  0  4  0  0  0  0  0  0
   -2.2504   -2.4501    0.6711 O   0  0  0  0  0  1  0  0  0  0  0  0
   -3.4799   -0.7854   -0.2289 O   0  0  0  0  0  0  0  0  0  0  0  0
    2.0000    1.8447   -0.4560 H   0  0  0  0  0  0  0  0  0  0  0  0
   -0.1870    2.6983   -1.1681 H   0  0  0  0  0  0  0  0  0  0  0  0
    0.1556   -1.8387    0.8005 H   0  0  0  0  0  0  0  0  0  0  0  0
  1  2  1  0
  2  3  2  0
  2  4  1  0
  4  5  2  0
  5  6  1  0
  6  7  2  0
  7  8  1  0
  7  9  1  0
  9 10  2  0
  9 11  1  0
 11 12  1  0
 11 13  2  0
 10  4  1  0
  5 14  1  0
  6 15  1  0
 10 16  1  0
M  CHG  4   1  -1   2   1  11   1  12  -1
M  END
