
     RDKit          3D

 17 17  0  0  0  0  0  0  0  0999 V2000
    2.5014   -0.8580   -0.3548 C   0  0  0  0  0  0  0  0  0  0  0  0
    1.1974   -0.1766   -0.0875 C   0  0  0  0  0  0  0  0  0  0  0  0
    0.0280   -0.8422   -0.2966 N   0  0  0  0  0  0  0  0  0  0  0  0
   -1.1828   -0.2628   -0.0672 C   0  0  0  0  0  0  0  0  0  0  0  0
   -1.2441    1.0572    0.3981 C   0  0  0  0  0  0  0  0  0  0  0  0
   -0.0585    1.7599    0.6200 C   0  0  0  0  0  0  0  0  0  0  0  0
    1.1710    1.1446    0.3776 C   0  0  0  0  0  0  0  0  0  0  0  0
   -2.4384   -1.0369   -0.3128 C   0  0  0  0  0  0  0  0  0  0  0  0
    3.1020   -0.8977    0.5782 H   0  0  0  0  0  0  0  0  0  0  0  0
    2.3334   -1.8950   -0.7154 H   0  0  0  0  0  0  0  0  0  0  0  0
    3.0653   -0.2978   -1.1300 H   0  0  0  0  0  0  0  0  0  0  0  0
   -2.1982    1.5340    0.5860 H   0  0  0  0  0  0  0  0  0  0  0  0
   -0.0924    2.7802    0.9794 H   0  0  0  0  0  0  0  0  0  0  0  0
    2.0911    1.6894    0.5495 H   0  0  0  0  0  0  0  0  0  0  0  0
   -2.2020   -2.0594   -0.6768 H   0  0  0  0  0  0  0  0  0  0  0  0
   -3.0544   -0.5195   -1.0780 H   0  0  0  0  0  0  0  0  0  0  0  0
   -3.0187   -1.1194    0.6303 H   0  0  0  0  0  0  0  0  0  0  0  0
  1  2  1  0
  2  3  2  0
  3  4  1  0
  4  5  2  0
  5  6  1  0
  6  7  2  0
  4  8  1  0
  7  2  1  0
  1  9  1  0
  1 10  1  0
  1 11  1  0
  5 12  1  0
  6 13  1  0
  7 14  1  0
  8 15  1  0
  8 16  1  0
  8 17  1  0
M  END
