
     RDKit          3D

 14 14  0  0  0  0  0  0  0  0999 V2000
    1.9845   -0.2137   -0.0151 C   0  0  0  0  0  0  0  0  0  0  0  0
    0.4935   -0.0519   -0.0332 C   0  0  0  0  0  0  0  0  0  0  0  0
   -0.3412   -1.1782   -0.0572 C   0  0  0  0  0  0  0  0  0  0  0  0
   -1.7277   -1.0067   -0.0355 C   0  0  0  0  0  0  0  0  0  0  0  0
   -2.2597    0.2432    0.0220 N   0  0  0  0  0  0  0  0  0  0  0  0
   -1.4730    1.3513    0.0621 C   0  0  0  0  0  0  0  0  0  0  0  0
   -0.0817    1.2245    0.0422 C   0  0  0  0  0  0  0  0  0  0  0  0
    2.4787    0.6575   -0.4954 H   0  0  0  0  0  0  0  0  0  0  0  0
    2.2858   -1.1281   -0.5693 H   0  0  0  0  0  0  0  0  0  0  0  0
    2.3342   -0.2950    1.0352 H   0  0  0  0  0  0  0  0  0  0  0  0
    0.0761   -2.1770   -0.0930 H   0  0  0  0  0  0  0  0  0  0  0  0
   -2.3812   -1.8685   -0.0606 H   0  0  0  0  0  0  0  0  0  0  0  0
   -1.9275    2.3317    0.1133 H   0  0  0  0  0  0  0  0  0  0  0  0
    0.5392    2.1109    0.0845 H   0  0  0  0  0  0  0  0  0  0  0  0
  1  2  1  0
  2  3  2  0
  3  4  1  0
  4  5  2  0
  5  6  1  0
  6  7  2  0
  7  2  1  0
  1  8  1  0
  1  9  1  0
  1 10  1  0
  3 11  1  0
  4 12  1  0
  6 13  1  0
  7 14  1  0
M  END
