
     RDKit          3D

 13 13  0  0  0  0  0  0  0  0999 V2000
    2.2331   -0.9221   -0.7059 O   0  0  0  0  0  0  0  0  0  0  0  0
    0.9839   -0.4359   -0.3273 C   0  0  0  0  0  0  0  0  0  0  0  0
   -0.1664   -1.1750   -0.6286 C   0  0  0  0  0  0  0  0  0  0  0  0
   -1.4264   -0.6970   -0.2535 C   0  0  0  0  0  0  0  0  0  0  0  0
   -1.5398    0.5212    0.4240 C   0  0  0  0  0  0  0  0  0  0  0  0
   -0.3932    1.2623    0.7268 C   0  0  0  0  0  0  0  0  0  0  0  0
    0.8676    0.7859    0.3524 C   0  0  0  0  0  0  0  0  0  0  0  0
    3.0840   -0.4108   -0.5024 H   0  0  0  0  0  0  0  0  0  0  0  0
   -0.0834   -2.1185   -1.1529 H   0  0  0  0  0  0  0  0  0  0  0  0
   -2.3141   -1.2703   -0.4876 H   0  0  0  0  0  0  0  0  0  0  0  0
   -2.5150    0.8904    0.7139 H   0  0  0  0  0  0  0  0  0  0  0  0
   -0.4815    2.2051    1.2511 H   0  0  0  0  0  0  0  0  0  0  0  0
    1.7510    1.3648    0.5900 H   0  0  0  0  0  0  0  0  0  0  0  0
  1  2  1  0
  2  3  2  0
  3  4  1  0
  4  5  2  0
  5  6  1  0
  6  7  2  0
  7  2  1  0
  1  8  1  0
  3  9  1  0
  4 10  1  0
  5 11  1  0
  6 12  1  0
  7 13  1  0
M  END
