
     RDKit          3D

 11 11  0  0  0  0  0  0  0  0999 V2000
    2.7847   -1.8052   -0.2963 Br  0  0  0  0  0  0  0  0  0  0  0  0
    1.1373   -0.8575   -0.1342 C   0  0  0  0  0  0  0  0  0  0  0  0
    1.1354    0.5326    0.0184 C   0  0  0  0  0  0  0  0  0  0  0  0
   -0.0835    1.2044    0.1351 C   0  0  0  0  0  0  0  0  0  0  0  0
   -1.2796    0.4843    0.0983 C   0  0  0  0  0  0  0  0  0  0  0  0
   -1.2365   -0.9039   -0.0555 C   0  0  0  0  0  0  0  0  0  0  0  0
   -0.0392   -1.5399   -0.1676 N   0  0  0  0  0  0  0  0  0  0  0  0
    2.0659    1.0848    0.0461 H   0  0  0  0  0  0  0  0  0  0  0  0
   -0.1011    2.2801    0.2537 H   0  0  0  0  0  0  0  0  0  0  0  0
   -2.2292    0.9957    0.1879 H   0  0  0  0  0  0  0  0  0  0  0  0
   -2.1544   -1.4755   -0.0858 H   0  0  0  0  0  0  0  0  0  0  0  0
  1  2  1  0
  2  3  2  0
  3  4  1  0
  4  5  2  0
  5  6  1  0
  6  7  2  0
  7  2  1  0
  3  8  1  0
  4  9  1  0
  5 10  1  0
  6 11  1  0
M  END
