
     RDKit          3D

 17 16  0  0  0  0  0  0  0  0999 V2000
   -2.7936   -0.1727    0.2348 C   0  0  0  0  0  0  0  0  0  0  0  0
   -1.4422   -0.0898    0.8808 C   0  0  0  0  0  0  0  0  0  0  0  0
   -1.3147   -0.4524    2.0405 O   0  0  0  0  0  0  0  0  0  0  0  0
   -0.2463    0.4407    0.1346 C   0  0  0  0  0  0  0  0  0  0  0  0
    0.7787   -0.6730   -0.1073 C   0  0  0  0  0  0  0  0  0  0  0  0
    1.9553   -0.1692   -0.8973 C   0  0  0  0  0  0  0  0  0  0  0  0
    2.8536    0.6656   -0.3664 C   0  0  0  0  0  0  0  0  0  0  0  0
   -3.1462   -1.2252    0.2478 H   0  0  0  0  0  0  0  0  0  0  0  0
   -3.5133    0.4581    0.7974 H   0  0  0  0  0  0  0  0  0  0  0  0
   -2.7626    0.1758   -0.8186 H   0  0  0  0  0  0  0  0  0  0  0  0
    0.2117    1.2585    0.7320 H   0  0  0  0  0  0  0  0  0  0  0  0
   -0.5582    0.8696   -0.8426 H   0  0  0  0  0  0  0  0  0  0  0  0
    0.2948   -1.4947   -0.6792 H   0  0  0  0  0  0  0  0  0  0  0  0
    1.1336   -1.0895    0.8611 H   0  0  0  0  0  0  0  0  0  0  0  0
    2.0945   -0.5180   -1.9164 H   0  0  0  0  0  0  0  0  0  0  0  0
    2.7550    1.0163    0.6565 H   0  0  0  0  0  0  0  0  0  0  0  0
    3.6997    1.0000   -0.9577 H   0  0  0  0  0  0  0  0  0  0  0  0
  1  2  1  0
  2  3  2  0
  2  4  1  0
  4  5  1  0
  5  6  1  0
  6  7  2  3
  1  8  1  0
  1  9  1  0
  1 10  1  0
  4 11  1  0
  4 12  1  0
  5 13  1  0
  5 14  1  0
  6 15  1  0
  7 16  1  0
  7 17  1  0
M  END
