
     RDKit          3D

 22 21  0  0  0  0  0  0  0  0999 V2000
   -2.7200   -0.0274   -0.1645 C   0  0  0  0  0  0  0  0  0  0  0  0
   -1.1897    0.0320   -0.2673 C   0  0  0  0  0  0  0  0  0  0  0  0
   -0.6995    1.4367    0.1097 C   0  0  0  0  0  0  0  0  0  0  0  0
   -0.5597   -1.0663    0.6219 C   0  0  0  0  0  0  0  0  0  0  0  0
    0.9525   -1.2675    0.3972 C   0  0  0  0  0  0  0  0  0  0  0  0
    1.7992   -0.3527    1.2482 C   0  0  0  0  0  0  0  0  0  0  0  0
    2.8330    0.5484    0.6389 C   0  0  0  0  0  0  0  0  0  0  0  0
    1.6742   -0.3722    2.4634 O   0  0  0  0  0  0  0  0  0  0  0  0
   -3.1816    0.7308   -0.8327 H   0  0  0  0  0  0  0  0  0  0  0  0
   -3.0893   -1.0268   -0.4793 H   0  0  0  0  0  0  0  0  0  0  0  0
   -3.0499    0.1652    0.8792 H   0  0  0  0  0  0  0  0  0  0  0  0
   -0.9183   -0.1614   -1.3289 H   0  0  0  0  0  0  0  0  0  0  0  0
   -0.8182    1.6176    1.1995 H   0  0  0  0  0  0  0  0  0  0  0  0
   -1.2733    2.2098   -0.4449 H   0  0  0  0  0  0  0  0  0  0  0  0
    0.3641    1.5611   -0.1714 H   0  0  0  0  0  0  0  0  0  0  0  0
   -1.0536   -2.0322    0.3749 H   0  0  0  0  0  0  0  0  0  0  0  0
   -0.7775   -0.8683    1.6947 H   0  0  0  0  0  0  0  0  0  0  0  0
    1.1975   -1.1557   -0.6808 H   0  0  0  0  0  0  0  0  0  0  0  0
    1.2130   -2.3115    0.6762 H   0  0  0  0  0  0  0  0  0  0  0  0
    2.6300    1.5998    0.9318 H   0  0  0  0  0  0  0  0  0  0  0  0
    3.8393    0.2598    1.0078 H   0  0  0  0  0  0  0  0  0  0  0  0
    2.8278    0.4807   -0.4690 H   0  0  0  0  0  0  0  0  0  0  0  0
  1  2  1  0
  2  3  1  0
  2  4  1  0
  4  5  1  0
  5  6  1  0
  6  7  1  0
  6  8  2  0
  1  9  1  0
  1 10  1  0
  1 11  1  0
  2 12  1  0
  3 13  1  0
  3 14  1  0
  3 15  1  0
  4 16  1  0
  4 17  1  0
  5 18  1  0
  5 19  1  0
  7 20  1  0
  7 21  1  0
  7 22  1  0
M  END
