
     RDKit          3D

 14 13  0  0  0  0  0  0  0  0999 V2000
    2.1147    1.2386    1.7441 O   0  0  0  0  0  0  0  0  0  0  0  0
    1.9399    0.1122    0.9456 C   0  0  0  0  0  0  0  0  0  0  0  0
    2.7505   -0.8466    1.0410 O   0  0  0  0  0  0  0  0  0  0  0  0
    0.7724    0.0145    0.0110 C   0  0  0  0  0  0  0  0  0  0  0  0
   -0.4699   -0.4748    0.7568 C   0  0  0  0  0  0  0  0  0  0  0  0
   -1.6372   -0.5647   -0.1742 C   0  0  0  0  0  0  0  0  0  0  0  0
   -2.4446    0.5490   -0.3825 O   0  0  0  0  0  0  0  0  0  0  0  0
   -1.8658   -1.6348   -0.7992 O   0  0  0  0  0  0  0  0  0  0  0  0
    1.4663    2.0158    1.7022 H   0  0  0  0  0  0  0  0  0  0  0  0
    0.5774    1.0149   -0.4333 H   0  0  0  0  0  0  0  0  0  0  0  0
    1.0174   -0.6884   -0.8157 H   0  0  0  0  0  0  0  0  0  0  0  0
   -0.7177    0.2299    1.5804 H   0  0  0  0  0  0  0  0  0  0  0  0
   -0.2742   -1.4749    1.2026 H   0  0  0  0  0  0  0  0  0  0  0  0
   -3.2293    0.5093   -1.0220 H   0  0  0  0  0  0  0  0  0  0  0  0
  1  2  1  0
  2  3  2  0
  2  4  1  0
  4  5  1  0
  5  6  1  0
  6  7  1  0
  6  8  2  0
  1  9  1  0
  4 10  1  0
  4 11  1  0
  5 12  1  0
  5 13  1  0
  7 14  1  0
M  END
