
     RDKit          3D

 21 20  0  0  0  0  0  0  0  0999 V2000
    3.1888    2.9576   -1.3909 C   0  0  0  0  0  0  0  0  0  0  0  0
    2.9738    1.8059   -0.7573 C   0  0  0  0  0  0  0  0  0  0  0  0
    1.6710    1.1158   -0.7871 C   0  0  0  0  0  0  0  0  0  0  0  0
    0.7025    1.6087   -1.4291 O   0  0  0  0  0  0  0  0  0  0  0  0
    1.5081   -0.1219   -0.0813 N   0  0  0  0  0  0  0  0  0  0  0  0
    0.2428   -0.8527   -0.0721 C   0  0  0  0  0  0  0  0  0  0  0  0
   -0.7562   -0.1300    0.7145 N   0  0  0  0  0  0  0  0  0  0  0  0
   -2.1069   -0.5873    0.8838 C   0  0  0  0  0  0  0  0  0  0  0  0
   -2.9007    0.1104    1.5720 O   0  0  0  0  0  0  0  0  0  0  0  0
   -2.5805   -1.8506    0.2732 C   0  0  0  0  0  0  0  0  0  0  0  0
   -3.8324   -2.2839    0.4145 C   0  0  0  0  0  0  0  0  0  0  0  0
    4.1625    3.4272   -1.3400 H   0  0  0  0  0  0  0  0  0  0  0  0
    2.4086    3.4441   -1.9626 H   0  0  0  0  0  0  0  0  0  0  0  0
    3.7879    1.3607   -0.1988 H   0  0  0  0  0  0  0  0  0  0  0  0
    2.3235   -0.5307    0.4289 H   0  0  0  0  0  0  0  0  0  0  0  0
   -0.1160   -0.9839   -1.1158 H   0  0  0  0  0  0  0  0  0  0  0  0
    0.4049   -1.8561    0.3776 H   0  0  0  0  0  0  0  0  0  0  0  0
   -0.4813    0.7624    1.1851 H   0  0  0  0  0  0  0  0  0  0  0  0
   -1.8988   -2.4547   -0.3100 H   0  0  0  0  0  0  0  0  0  0  0  0
   -4.5648   -1.7274    0.9855 H   0  0  0  0  0  0  0  0  0  0  0  0
   -4.1367   -3.2137   -0.0486 H   0  0  0  0  0  0  0  0  0  0  0  0
  1  2  2  3
  2  3  1  0
  3  4  2  0
  3  5  1  0
  5  6  1  0
  6  7  1  0
  7  8  1  0
  8  9  2  0
  8 10  1  0
 10 11  2  3
  1 12  1  0
  1 13  1  0
  2 14  1  0
  5 15  1  0
  6 16  1  0
  6 17  1  0
  7 18  1  0
 10 19  1  0
 11 20  1  0
 11 21  1  0
M  END
