
     RDKit          3D

 17 16  0  0  0  0  0  0  0  0999 V2000
   -1.9498    0.4325    0.7254 C   0  0  0  0  0  0  0  0  0  0  0  0
   -1.5460   -0.1523   -0.6278 C   0  0  0  0  0  0  0  0  0  0  0  0
   -0.1169   -0.7163   -0.6288 C   0  0  0  0  0  0  0  0  0  0  0  0
    0.9514    0.3845   -0.5557 C   0  0  0  0  0  0  0  0  0  0  0  0
    2.3548   -0.2053   -0.6824 C   0  0  0  0  0  0  0  0  0  0  0  0
    3.6816    1.2026   -0.5739 Br  0  0  0  0  0  0  0  0  0  0  0  0
   -3.0235    0.7145    0.6993 H   0  0  0  0  0  0  0  0  0  0  0  0
   -1.8012   -0.3159    1.5327 H   0  0  0  0  0  0  0  0  0  0  0  0
   -1.3595    1.3442    0.9521 H   0  0  0  0  0  0  0  0  0  0  0  0
   -2.2489   -0.9777   -0.8734 H   0  0  0  0  0  0  0  0  0  0  0  0
   -1.6518    0.6244   -1.4161 H   0  0  0  0  0  0  0  0  0  0  0  0
    0.0092   -1.4239    0.2200 H   0  0  0  0  0  0  0  0  0  0  0  0
    0.0237   -1.2912   -1.5704 H   0  0  0  0  0  0  0  0  0  0  0  0
    0.7907    1.1161   -1.3773 H   0  0  0  0  0  0  0  0  0  0  0  0
    0.8778    0.9178    0.4157 H   0  0  0  0  0  0  0  0  0  0  0  0
    2.4676   -0.7226   -1.6590 H   0  0  0  0  0  0  0  0  0  0  0  0
    2.5409   -0.9315    0.1375 H   0  0  0  0  0  0  0  0  0  0  0  0
  1  2  1  0
  2  3  1  0
  3  4  1  0
  4  5  1  0
  5  6  1  0
  1  7  1  0
  1  8  1  0
  1  9  1  0
  2 10  1  0
  2 11  1  0
  3 12  1  0
  3 13  1  0
  4 14  1  0
  4 15  1  0
  5 16  1  0
  5 17  1  0
M  END
