
     RDKit          3D

 19 18  0  0  0  0  0  0  0  0999 V2000
   -2.9770    0.1312    0.3862 C   0  0  0  0  0  0  0  0  0  0  0  0
   -1.7134   -0.3230   -0.3386 C   0  0  0  0  0  0  0  0  0  0  0  0
   -0.4535    0.1614    0.3881 C   0  0  0  0  0  0  0  0  0  0  0  0
    0.8136   -0.2971   -0.3431 C   0  0  0  0  0  0  0  0  0  0  0  0
    2.0734    0.1865    0.3802 C   0  0  0  0  0  0  0  0  0  0  0  0
    3.2655   -0.2805   -0.3202 N   0  0  0  0  0  0  0  0  0  0  0  0
   -3.8713   -0.2334   -0.1619 H   0  0  0  0  0  0  0  0  0  0  0  0
   -2.9998   -0.2813    1.4174 H   0  0  0  0  0  0  0  0  0  0  0  0
   -3.0173    1.2403    0.4334 H   0  0  0  0  0  0  0  0  0  0  0  0
   -1.7280    0.0816   -1.3742 H   0  0  0  0  0  0  0  0  0  0  0  0
   -1.7105   -1.4335   -0.3944 H   0  0  0  0  0  0  0  0  0  0  0  0
   -0.4479   -0.2440    1.4241 H   0  0  0  0  0  0  0  0  0  0  0  0
   -0.4649    1.2725    0.4431 H   0  0  0  0  0  0  0  0  0  0  0  0
    0.8090    0.1070   -1.3794 H   0  0  0  0  0  0  0  0  0  0  0  0
    0.8293   -1.4080   -0.3975 H   0  0  0  0  0  0  0  0  0  0  0  0
    2.0804   -0.2162    1.4171 H   0  0  0  0  0  0  0  0  0  0  0  0
    2.0791    1.2986    0.4328 H   0  0  0  0  0  0  0  0  0  0  0  0
    3.3352    0.2359   -1.2274 H   0  0  0  0  0  0  0  0  0  0  0  0
    4.0980    0.0021    0.2460 H   0  0  0  0  0  0  0  0  0  0  0  0
  1  2  1  0
  2  3  1  0
  3  4  1  0
  4  5  1  0
  5  6  1  0
  1  7  1  0
  1  8  1  0
  1  9  1  0
  2 10  1  0
  2 11  1  0
  3 12  1  0
  3 13  1  0
  4 14  1  0
  4 15  1  0
  5 16  1  0
  5 17  1  0
  6 18  1  0
  6 19  1  0
M  END
