
     RDKit          3D

 16 15  0  0  0  0  0  0  0  0999 V2000
   -2.3643    0.0274    0.4645 C   0  0  0  0  0  0  0  0  0  0  0  0
   -1.0362    0.6530    0.0485 C   0  0  0  0  0  0  0  0  0  0  0  0
    0.1200   -0.3397    0.2147 C   0  0  0  0  0  0  0  0  0  0  0  0
    1.4516    0.2926   -0.2041 C   0  0  0  0  0  0  0  0  0  0  0  0
    2.5872   -0.6745   -0.0436 C   0  0  0  0  0  0  0  0  0  0  0  0
    3.7226   -0.3332   -0.3327 O   0  0  0  0  0  0  0  0  0  0  0  0
   -2.5862   -0.8611   -0.1644 H   0  0  0  0  0  0  0  0  0  0  0  0
   -2.3295   -0.2780    1.5321 H   0  0  0  0  0  0  0  0  0  0  0  0
   -3.1813    0.7679    0.3336 H   0  0  0  0  0  0  0  0  0  0  0  0
   -1.1066    0.9722   -1.0143 H   0  0  0  0  0  0  0  0  0  0  0  0
   -0.8510    1.5528    0.6749 H   0  0  0  0  0  0  0  0  0  0  0  0
    0.1825   -0.6569    1.2795 H   0  0  0  0  0  0  0  0  0  0  0  0
   -0.0735   -1.2384   -0.4123 H   0  0  0  0  0  0  0  0  0  0  0  0
    1.3970    0.6074   -1.2689 H   0  0  0  0  0  0  0  0  0  0  0  0
    1.6529    1.1887    0.4223 H   0  0  0  0  0  0  0  0  0  0  0  0
    2.4147   -1.6802    0.3282 H   0  0  0  0  0  0  0  0  0  0  0  0
  1  2  1  0
  2  3  1  0
  3  4  1  0
  4  5  1  0
  5  6  2  0
  1  7  1  0
  1  8  1  0
  1  9  1  0
  2 10  1  0
  2 11  1  0
  3 12  1  0
  3 13  1  0
  4 14  1  0
  4 15  1  0
  5 16  1  0
M  END
