
     RDKit          3D

 25 24  0  0  0  0  0  0  0  0999 V2000
    1.8927    1.7098   -1.4242 C   0  0  0  0  0  0  0  0  0  0  0  0
    1.6890    0.6181   -0.3778 C   0  0  0  0  0  0  0  0  0  0  0  0
    0.8368   -0.5298   -0.9374 C   0  0  0  0  0  0  0  0  0  0  0  0
    0.7070   -1.7122    0.0362 C   0  0  0  0  0  0  0  0  0  0  0  0
   -0.0040   -1.3934    1.3657 C   0  0  0  0  0  0  0  0  0  0  0  0
   -1.4850   -0.9955    1.2082 C   0  0  0  0  0  0  0  0  0  0  0  0
   -1.6739    0.4951    1.0656 C   0  0  0  0  0  0  0  0  0  0  0  0
   -2.3762    1.0873   -0.1206 C   0  0  0  0  0  0  0  0  0  0  0  0
   -1.2833    1.2390    1.9527 O   0  0  0  0  0  0  0  0  0  0  0  0
    2.4234    1.3016   -2.3107 H   0  0  0  0  0  0  0  0  0  0  0  0
    2.5037    2.5300   -0.9919 H   0  0  0  0  0  0  0  0  0  0  0  0
    0.9129    2.1261   -1.7420 H   0  0  0  0  0  0  0  0  0  0  0  0
    1.1906    1.0721    0.5035 H   0  0  0  0  0  0  0  0  0  0  0  0
    2.6821    0.2306   -0.0628 H   0  0  0  0  0  0  0  0  0  0  0  0
    1.3176   -0.9101   -1.8654 H   0  0  0  0  0  0  0  0  0  0  0  0
   -0.1674   -0.1607   -1.2251 H   0  0  0  0  0  0  0  0  0  0  0  0
    0.1595   -2.5334   -0.4759 H   0  0  0  0  0  0  0  0  0  0  0  0
    1.7242   -2.0993    0.2645 H   0  0  0  0  0  0  0  0  0  0  0  0
    0.0293   -2.3217    1.9770 H   0  0  0  0  0  0  0  0  0  0  0  0
    0.5621   -0.6330    1.9443 H   0  0  0  0  0  0  0  0  0  0  0  0
   -2.0348   -1.3129    2.1207 H   0  0  0  0  0  0  0  0  0  0  0  0
   -1.9417   -1.5423    0.3553 H   0  0  0  0  0  0  0  0  0  0  0  0
   -3.2816    1.6326    0.2188 H   0  0  0  0  0  0  0  0  0  0  0  0
   -2.6850    0.3029   -0.8427 H   0  0  0  0  0  0  0  0  0  0  0  0
   -1.6979    1.7992   -0.6361 H   0  0  0  0  0  0  0  0  0  0  0  0
  1  2  1  0
  2  3  1  0
  3  4  1  0
  4  5  1  0
  5  6  1  0
  6  7  1  0
  7  8  1  0
  7  9  2  0
  1 10  1  0
  1 11  1  0
  1 12  1  0
  2 13  1  0
  2 14  1  0
  3 15  1  0
  3 16  1  0
  4 17  1  0
  4 18  1  0
  5 19  1  0
  5 20  1  0
  6 21  1  0
  6 22  1  0
  8 23  1  0
  8 24  1  0
  8 25  1  0
M  END
