
     RDKit          3D

 23 22  0  0  0  0  0  0  0  0999 V2000
    3.9703    1.1656   -0.2182 O   0  0  0  0  0  0  0  0  0  0  0  0
    2.8107    1.8612   -0.5455 C   0  0  0  0  0  0  0  0  0  0  0  0
    2.8397    3.1156   -0.6615 O   0  0  0  0  0  0  0  0  0  0  0  0
    1.5209    1.1220   -0.7126 C   0  0  0  0  0  0  0  0  0  0  0  0
    0.8159    0.9650    0.6408 C   0  0  0  0  0  0  0  0  0  0  0  0
   -0.5744    0.3230    0.5117 C   0  0  0  0  0  0  0  0  0  0  0  0
   -0.5049   -1.1695    0.1440 C   0  0  0  0  0  0  0  0  0  0  0  0
   -1.8822   -1.8433    0.1988 C   0  0  0  0  0  0  0  0  0  0  0  0
   -2.7901   -1.3350   -0.8788 C   0  0  0  0  0  0  0  0  0  0  0  0
   -2.6172   -1.7659   -2.1904 O   0  0  0  0  0  0  0  0  0  0  0  0
   -3.6910   -0.4979   -0.6042 O   0  0  0  0  0  0  0  0  0  0  0  0
    4.8484    1.6530   -0.0857 H   0  0  0  0  0  0  0  0  0  0  0  0
    1.7404    0.1254   -1.1494 H   0  0  0  0  0  0  0  0  0  0  0  0
    0.8670    1.6769   -1.4203 H   0  0  0  0  0  0  0  0  0  0  0  0
    1.4475    0.3620    1.3299 H   0  0  0  0  0  0  0  0  0  0  0  0
    0.6873    1.9717    1.0968 H   0  0  0  0  0  0  0  0  0  0  0  0
   -1.1707    0.8766   -0.2458 H   0  0  0  0  0  0  0  0  0  0  0  0
   -1.0921    0.4280    1.4902 H   0  0  0  0  0  0  0  0  0  0  0  0
   -0.0777   -1.2968   -0.8738 H   0  0  0  0  0  0  0  0  0  0  0  0
    0.1643   -1.6910    0.8626 H   0  0  0  0  0  0  0  0  0  0  0  0
   -2.3456   -1.6862    1.1974 H   0  0  0  0  0  0  0  0  0  0  0  0
   -1.7518   -2.9381    0.0610 H   0  0  0  0  0  0  0  0  0  0  0  0
   -3.2145   -1.4223   -2.9329 H   0  0  0  0  0  0  0  0  0  0  0  0
  1  2  1  0
  2  3  2  0
  2  4  1  0
  4  5  1  0
  5  6  1  0
  6  7  1  0
  7  8  1  0
  8  9  1  0
  9 10  1  0
  9 11  2  0
  1 12  1  0
  4 13  1  0
  4 14  1  0
  5 15  1  0
  5 16  1  0
  6 17  1  0
  6 18  1  0
  7 19  1  0
  7 20  1  0
  8 21  1  0
  8 22  1  0
 10 23  1  0
M  END
