
     RDKit          3D

  6  5  0  0  0  0  0  0  0  0999 V2000
   -0.4956    0.0040    0.0001 C   0  0  0  0  0  0  0  0  0  0  0  0
    0.9675   -0.0078   -0.0002 C   0  0  0  0  0  0  0  0  0  0  0  0
    2.1247   -0.0170   -0.0004 N   0  0  0  0  0  0  0  0  0  0  0  0
   -0.8656   -0.0286    1.0455 H   0  0  0  0  0  0  0  0  0  0  0  0
   -0.8582    0.9300   -0.4917 H   0  0  0  0  0  0  0  0  0  0  0  0
   -0.8728   -0.8805   -0.5533 H   0  0  0  0  0  0  0  0  0  0  0  0
  1  2  1  0
  2  3  3  0
  1  4  1  0
  1  5  1  0
  1  6  1  0
M  END
