
     RDKit          3D

 16 15  0  0  0  0  0  0  0  0999 V2000
   -0.7687    0.7047    1.0002 C   0  0  0  0  0  0  0  0  0  0  0  0
    0.0263    0.0393   -0.1413 C   0  0  0  0  0  0  0  0  0  0  0  0
    1.4978   -0.1224    0.2790 C   0  0  0  0  0  0  0  0  0  0  0  0
   -0.5685   -1.3467   -0.4463 C   0  0  0  0  0  0  0  0  0  0  0  0
   -0.0382    0.8661   -1.3532 N   0  0  0  0  0  0  0  0  0  0  0  0
   -0.7247    0.0846    1.9216 H   0  0  0  0  0  0  0  0  0  0  0  0
   -0.3514    1.7081    1.2326 H   0  0  0  0  0  0  0  0  0  0  0  0
   -1.8346    0.8292    0.7120 H   0  0  0  0  0  0  0  0  0  0  0  0
    2.0860   -0.5854   -0.5424 H   0  0  0  0  0  0  0  0  0  0  0  0
    1.5813   -0.7672    1.1806 H   0  0  0  0  0  0  0  0  0  0  0  0
    1.9474    0.8665    0.5132 H   0  0  0  0  0  0  0  0  0  0  0  0
   -0.5094   -2.0060    0.4468 H   0  0  0  0  0  0  0  0  0  0  0  0
   -1.6353   -1.2564   -0.7444 H   0  0  0  0  0  0  0  0  0  0  0  0
   -0.0150   -1.8303   -1.2799 H   0  0  0  0  0  0  0  0  0  0  0  0
   -1.0384    0.9979   -1.6321 H   0  0  0  0  0  0  0  0  0  0  0  0
    0.3453    1.8178   -1.1464 H   0  0  0  0  0  0  0  0  0  0  0  0
  1  2  1  0
  2  3  1  0
  2  4  1  0
  2  5  1  0
  1  6  1  0
  1  7  1  0
  1  8  1  0
  3  9  1  0
  3 10  1  0
  3 11  1  0
  4 12  1  0
  4 13  1  0
  4 14  1  0
  5 15  1  0
  5 16  1  0
M  END
