
     RDKit          3D

 17 17  0  0  0  0  0  0  0  0999 V2000
    2.3319   -2.5332   -0.4044 O   0  0  0  0  0  1  0  0  0  0  0  0
    2.4662   -1.2386    0.0428 N   0  0  0  0  0  4  0  0  0  0  0  0
    3.5376   -0.9024    0.5871 O   0  0  0  0  0  0  0  0  0  0  0  0
    1.3357   -0.3466    0.0213 C   0  0  0  0  0  0  0  0  0  0  0  0
    1.4932    1.0588   -0.0248 C   0  0  0  0  0  0  0  0  0  0  0  0
    3.0718    1.8312   -0.1341 Cl  0  0  0  0  0  0  0  0  0  0  0  0
    0.3651    1.8856   -0.0472 C   0  0  0  0  0  0  0  0  0  0  0  0
   -0.9177    1.3383   -0.0216 C   0  0  0  0  0  0  0  0  0  0  0  0
   -1.0954   -0.0518    0.0392 C   0  0  0  0  0  0  0  0  0  0  0  0
    0.0359   -0.8853    0.0331 C   0  0  0  0  0  0  0  0  0  0  0  0
   -2.4810   -0.6478    0.0123 C   0  0  0  0  0  0  0  0  0  0  0  0
   -2.8473   -0.8885   -1.2986 F   0  0  0  0  0  0  0  0  0  0  0  0
   -2.5125   -1.8396    0.7156 F   0  0  0  0  0  0  0  0  0  0  0  0
   -3.3988    0.2157    0.5854 F   0  0  0  0  0  0  0  0  0  0  0  0
    0.4817    2.9609   -0.0997 H   0  0  0  0  0  0  0  0  0  0  0  0
   -1.7714    2.0034   -0.0578 H   0  0  0  0  0  0  0  0  0  0  0  0
   -0.0953   -1.9600    0.0512 H   0  0  0  0  0  0  0  0  0  0  0  0
  1  2  1  0
  2  3  2  0
  2  4  1  0
  4  5  2  0
  5  6  1  0
  5  7  1  0
  7  8  2  0
  8  9  1  0
  9 10  2  0
  9 11  1  0
 11 12  1  0
 11 13  1  0
 11 14  1  0
 10  4  1  0
  7 15  1  0
  8 16  1  0
 10 17  1  0
M  CHG  2   1  -1   2   1
M  END
