
     RDKit          3D

 19 19  0  0  0  0  0  0  0  0999 V2000
    2.9235   -0.3209    0.4076 C   0  0  0  0  0  0  0  0  0  0  0  0
    1.9828    0.7248    0.1856 O   0  0  0  0  0  0  0  0  0  0  0  0
    0.6009    0.5332    0.0260 C   0  0  0  0  0  0  0  0  0  0  0  0
   -0.2194    1.6562   -0.1880 C   0  0  0  0  0  0  0  0  0  0  0  0
    0.3189    2.9419   -0.2426 O   0  0  0  0  0  0  0  0  0  0  0  0
   -1.5985    1.4952   -0.3501 C   0  0  0  0  0  0  0  0  0  0  0  0
   -2.1732    0.2240   -0.3016 C   0  0  0  0  0  0  0  0  0  0  0  0
   -1.3704   -0.9076   -0.0890 C   0  0  0  0  0  0  0  0  0  0  0  0
    0.0144   -0.7479    0.0740 C   0  0  0  0  0  0  0  0  0  0  0  0
   -1.9598   -2.2586   -0.0347 C   0  0  0  0  0  0  0  0  0  0  0  0
   -3.1991   -2.4343   -0.1774 O   0  0  0  0  0  0  0  0  0  0  0  0
    2.9161   -1.0293   -0.4475 H   0  0  0  0  0  0  0  0  0  0  0  0
    3.9384    0.1177    0.4961 H   0  0  0  0  0  0  0  0  0  0  0  0
    2.6843   -0.8559    1.3509 H   0  0  0  0  0  0  0  0  0  0  0  0
    1.3103    3.1175   -0.1318 H   0  0  0  0  0  0  0  0  0  0  0  0
   -2.2279    2.3607   -0.5147 H   0  0  0  0  0  0  0  0  0  0  0  0
   -3.2441    0.1273   -0.4303 H   0  0  0  0  0  0  0  0  0  0  0  0
    0.6282   -1.6239    0.2375 H   0  0  0  0  0  0  0  0  0  0  0  0
   -1.3251   -3.1200    0.1301 H   0  0  0  0  0  0  0  0  0  0  0  0
  1  2  1  0
  2  3  1  0
  3  4  2  0
  4  5  1  0
  4  6  1  0
  6  7  2  0
  7  8  1  0
  8  9  2  0
  8 10  1  0
 10 11  2  0
  9  3  1  0
  1 12  1  0
  1 13  1  0
  1 14  1  0
  5 15  1  0
  6 16  1  0
  7 17  1  0
  9 18  1  0
 10 19  1  0
M  END
