
     RDKit          3D

 19 18  0  0  0  0  0  0  0  0999 V2000
    2.6828    0.2133    0.2567 C   0  0  0  0  0  0  0  0  0  0  0  0
    1.3314   -0.4790    0.1016 C   0  0  0  0  0  0  0  0  0  0  0  0
    0.2432    0.5194   -0.3235 C   0  0  0  0  0  0  0  0  0  0  0  0
   -1.1044   -0.1645   -0.6449 C   0  0  0  0  0  0  0  0  0  0  0  0
   -1.7611   -0.7563    0.6110 C   0  0  0  0  0  0  0  0  0  0  0  0
   -2.0443    0.8231   -1.2887 C   0  0  0  0  0  0  0  0  0  0  0  0
   -3.0909    0.4413   -1.7883 O   0  0  0  0  0  0  0  0  0  0  0  0
    3.0037    0.6563   -0.7101 H   0  0  0  0  0  0  0  0  0  0  0  0
    3.4455   -0.5274    0.5771 H   0  0  0  0  0  0  0  0  0  0  0  0
    2.6201    1.0137    1.0246 H   0  0  0  0  0  0  0  0  0  0  0  0
    1.4262   -1.2822   -0.6611 H   0  0  0  0  0  0  0  0  0  0  0  0
    1.0656   -0.9431    1.0745 H   0  0  0  0  0  0  0  0  0  0  0  0
    0.1011    1.2789    0.4774 H   0  0  0  0  0  0  0  0  0  0  0  0
    0.5969    1.0510   -1.2355 H   0  0  0  0  0  0  0  0  0  0  0  0
   -0.9234   -0.9853   -1.3741 H   0  0  0  0  0  0  0  0  0  0  0  0
   -1.1460   -1.5817    1.0239 H   0  0  0  0  0  0  0  0  0  0  0  0
   -1.8930    0.0251    1.3902 H   0  0  0  0  0  0  0  0  0  0  0  0
   -2.7566   -1.1825    0.3619 H   0  0  0  0  0  0  0  0  0  0  0  0
   -1.7970    1.8800   -1.3279 H   0  0  0  0  0  0  0  0  0  0  0  0
  1  2  1  0
  2  3  1  0
  3  4  1  0
  4  5  1  0
  4  6  1  0
  6  7  2  0
  1  8  1  0
  1  9  1  0
  1 10  1  0
  2 11  1  0
  2 12  1  0
  3 13  1  0
  3 14  1  0
  4 15  1  0
  5 16  1  0
  5 17  1  0
  5 18  1  0
  6 19  1  0
M  END
