
     RDKit          3D

 27 26  0  0  0  0  0  0  0  0999 V2000
   -2.7277   -1.5703    0.9790 C   0  0  0  0  0  0  0  0  0  0  0  0
   -3.1952   -0.2219    0.4359 C   0  0  0  0  0  0  0  0  0  0  0  0
   -2.0528    0.6121   -0.1675 C   0  0  0  0  0  0  0  0  0  0  0  0
   -1.4595    0.0062   -1.4593 C   0  0  0  0  0  0  0  0  0  0  0  0
   -0.1403   -0.7481   -1.2288 C   0  0  0  0  0  0  0  0  0  0  0  0
    0.9816    0.1875   -0.8980 C   0  0  0  0  0  0  0  0  0  0  0  0
    1.5234    0.8641   -1.8145 O   0  0  0  0  0  0  0  0  0  0  0  0
    1.3983    0.3212    0.4314 O   0  0  0  0  0  0  0  0  0  0  0  0
    2.4558    1.1883    0.8358 C   0  0  0  0  0  0  0  0  0  0  0  0
    3.7825    0.6650    0.3643 C   0  0  0  0  0  0  0  0  0  0  0  0
    4.2537   -0.5125    0.7821 C   0  0  0  0  0  0  0  0  0  0  0  0
   -1.8718   -1.4352    1.6741 H   0  0  0  0  0  0  0  0  0  0  0  0
   -3.5600   -2.0538    1.5326 H   0  0  0  0  0  0  0  0  0  0  0  0
   -2.4326   -2.2427    0.1469 H   0  0  0  0  0  0  0  0  0  0  0  0
   -3.6439    0.3548    1.2737 H   0  0  0  0  0  0  0  0  0  0  0  0
   -3.9917   -0.3828   -0.3228 H   0  0  0  0  0  0  0  0  0  0  0  0
   -2.4717    1.6114   -0.4175 H   0  0  0  0  0  0  0  0  0  0  0  0
   -1.2690    0.7860    0.6006 H   0  0  0  0  0  0  0  0  0  0  0  0
   -1.2795    0.8213   -2.1950 H   0  0  0  0  0  0  0  0  0  0  0  0
   -2.1911   -0.6833   -1.9342 H   0  0  0  0  0  0  0  0  0  0  0  0
    0.1225   -1.3039   -2.1546 H   0  0  0  0  0  0  0  0  0  0  0  0
   -0.2514   -1.4948   -0.4160 H   0  0  0  0  0  0  0  0  0  0  0  0
    2.2842    2.2090    0.4308 H   0  0  0  0  0  0  0  0  0  0  0  0
    2.4624    1.2573    1.9441 H   0  0  0  0  0  0  0  0  0  0  0  0
    4.3718    1.2601   -0.3269 H   0  0  0  0  0  0  0  0  0  0  0  0
    3.6861   -1.1265    1.4750 H   0  0  0  0  0  0  0  0  0  0  0  0
    5.2159   -0.8687    0.4289 H   0  0  0  0  0  0  0  0  0  0  0  0
  1  2  1  0
  2  3  1  0
  3  4  1  0
  4  5  1  0
  5  6  1  0
  6  7  2  0
  6  8  1  0
  8  9  1  0
  9 10  1  0
 10 11  2  3
  1 12  1  0
  1 13  1  0
  1 14  1  0
  2 15  1  0
  2 16  1  0
  3 17  1  0
  3 18  1  0
  4 19  1  0
  4 20  1  0
  5 21  1  0
  5 22  1  0
  9 23  1  0
  9 24  1  0
 10 25  1  0
 11 26  1  0
 11 27  1  0
M  END
