
     RDKit          3D

 13 12  0  0  0  0  0  0  0  0999 V2000
    1.4752    0.4078   -0.1166 C   0  0  0  0  0  0  0  0  0  0  0  0
    0.5029   -0.7004    0.2867 C   0  0  0  0  0  0  0  0  0  0  0  0
   -0.8834   -0.5137   -0.3414 C   0  0  0  0  0  0  0  0  0  0  0  0
   -1.5927    0.6769    0.2340 C   0  0  0  0  0  0  0  0  0  0  0  0
   -1.8761    1.6300   -0.4739 O   0  0  0  0  0  0  0  0  0  0  0  0
    2.4733    0.2035    0.3250 H   0  0  0  0  0  0  0  0  0  0  0  0
    1.5782    0.4482   -1.2219 H   0  0  0  0  0  0  0  0  0  0  0  0
    1.1211    1.3922    0.2557 H   0  0  0  0  0  0  0  0  0  0  0  0
    0.4175   -0.7355    1.3949 H   0  0  0  0  0  0  0  0  0  0  0  0
    0.9183   -1.6743   -0.0517 H   0  0  0  0  0  0  0  0  0  0  0  0
   -0.7903   -0.4157   -1.4456 H   0  0  0  0  0  0  0  0  0  0  0  0
   -1.4963   -1.4166   -0.1339 H   0  0  0  0  0  0  0  0  0  0  0  0
   -1.8478    0.6976    1.2886 H   0  0  0  0  0  0  0  0  0  0  0  0
  1  2  1  0
  2  3  1  0
  3  4  1  0
  4  5  2  0
  1  6  1  0
  1  7  1  0
  1  8  1  0
  2  9  1  0
  2 10  1  0
  3 11  1  0
  3 12  1  0
  4 13  1  0
M  END
