
     RDKit          3D

 10  9  0  0  0  0  0  0  0  0999 V2000
   -1.1693   -0.4279   -0.0627 C   0  0  0  0  0  0  0  0  0  0  0  0
    0.2705   -0.0172    0.0086 C   0  0  0  0  0  0  0  0  0  0  0  0
    0.6013    1.2716    0.0860 C   0  0  0  0  0  0  0  0  0  0  0  0
    1.3037   -1.0221   -0.0068 C   0  0  0  0  0  0  0  0  0  0  0  0
    2.1329   -1.8293   -0.0191 N   0  0  0  0  0  0  0  0  0  0  0  0
   -1.7067   -0.0762    0.8435 H   0  0  0  0  0  0  0  0  0  0  0  0
   -1.2650   -1.5333   -0.1225 H   0  0  0  0  0  0  0  0  0  0  0  0
   -1.6437    0.0162   -0.9635 H   0  0  0  0  0  0  0  0  0  0  0  0
   -0.1629    2.0391    0.0986 H   0  0  0  0  0  0  0  0  0  0  0  0
    1.6391    1.5790    0.1379 H   0  0  0  0  0  0  0  0  0  0  0  0
  1  2  1  0
  2  3  2  3
  2  4  1  0
  4  5  3  0
  1  6  1  0
  1  7  1  0
  1  8  1  0
  3  9  1  0
  3 10  1  0
M  END
