
     RDKit          3D

 15 14  0  0  0  0  0  0  0  0999 V2000
   -0.8967   -1.0249    0.5854 C   0  0  0  0  0  0  0  0  0  0  0  0
   -0.4682    0.2037   -0.0921 N   0  0  0  0  0  0  0  0  0  0  0  0
   -1.4638    1.1667   -0.5733 C   0  0  0  0  0  0  0  0  0  0  0  0
    0.9341    0.4809   -0.2939 C   0  0  0  0  0  0  0  0  0  0  0  0
    1.9963   -0.4675    0.1769 C   0  0  0  0  0  0  0  0  0  0  0  0
    1.2874    1.5416   -0.8782 O   0  0  0  0  0  0  0  0  0  0  0  0
   -0.5414   -1.9110    0.0190 H   0  0  0  0  0  0  0  0  0  0  0  0
   -0.4815   -1.0520    1.6146 H   0  0  0  0  0  0  0  0  0  0  0  0
   -2.0024   -1.0888    0.6613 H   0  0  0  0  0  0  0  0  0  0  0  0
   -1.3044    2.1483   -0.0790 H   0  0  0  0  0  0  0  0  0  0  0  0
   -1.3641    1.2905   -1.6724 H   0  0  0  0  0  0  0  0  0  0  0  0
   -2.5001    0.8337   -0.3551 H   0  0  0  0  0  0  0  0  0  0  0  0
    1.9294   -0.5928    1.2774 H   0  0  0  0  0  0  0  0  0  0  0  0
    1.8696   -1.4522   -0.3188 H   0  0  0  0  0  0  0  0  0  0  0  0
    3.0058   -0.0761   -0.0717 H   0  0  0  0  0  0  0  0  0  0  0  0
  1  2  1  0
  2  3  1  0
  2  4  1  0
  4  5  1  0
  4  6  2  0
  1  7  1  0
  1  8  1  0
  1  9  1  0
  3 10  1  0
  3 11  1  0
  3 12  1  0
  5 13  1  0
  5 14  1  0
  5 15  1  0
M  END
