
     RDKit          3D

 28 29  0  0  0  0  0  0  0  0999 V2000
   -5.4050   -0.7849    0.5088 N   0  0  0  0  0  0  0  0  0  0  0  0
   -4.0470   -0.4408    0.2212 C   0  0  0  0  0  0  0  0  0  0  0  0
   -3.7564    0.6337   -0.6278 C   0  0  0  0  0  0  0  0  0  0  0  0
   -2.4309    0.9736   -0.9266 C   0  0  0  0  0  0  0  0  0  0  0  0
   -1.3686    0.2489   -0.3282 C   0  0  0  0  0  0  0  0  0  0  0  0
   -1.6739   -0.8408    0.5059 C   0  0  0  0  0  0  0  0  0  0  0  0
   -3.0000   -1.1819    0.7783 C   0  0  0  0  0  0  0  0  0  0  0  0
    0.0538    0.6082   -0.5144 C   0  0  0  0  0  0  0  0  0  0  0  0
    0.3939    1.8152   -0.6465 O   0  0  0  0  0  0  0  0  0  0  0  0
    1.0178   -0.4098   -0.5365 O   0  0  0  0  0  0  0  0  0  0  0  0
    2.4001   -0.2240   -0.3867 C   0  0  0  0  0  0  0  0  0  0  0  0
    3.2666   -1.1385   -0.9998 C   0  0  0  0  0  0  0  0  0  0  0  0
    4.6519   -0.9992   -0.8694 C   0  0  0  0  0  0  0  0  0  0  0  0
    5.1815    0.0496   -0.1134 C   0  0  0  0  0  0  0  0  0  0  0  0
    4.3261    0.9553    0.5195 C   0  0  0  0  0  0  0  0  0  0  0  0
    2.9401    0.8194    0.3902 C   0  0  0  0  0  0  0  0  0  0  0  0
   -2.2170    2.0061   -1.8425 O   0  0  0  0  0  0  0  0  0  0  0  0
   -6.1940   -0.2395    0.0952 H   0  0  0  0  0  0  0  0  0  0  0  0
   -5.6317   -1.5871    1.1381 H   0  0  0  0  0  0  0  0  0  0  0  0
   -4.5643    1.1970   -1.0787 H   0  0  0  0  0  0  0  0  0  0  0  0
   -0.8826   -1.4156    0.9719 H   0  0  0  0  0  0  0  0  0  0  0  0
   -3.2111   -2.0182    1.4330 H   0  0  0  0  0  0  0  0  0  0  0  0
    2.8640   -1.9550   -1.5859 H   0  0  0  0  0  0  0  0  0  0  0  0
    5.3143   -1.7054   -1.3530 H   0  0  0  0  0  0  0  0  0  0  0  0
    6.2538    0.1555   -0.0109 H   0  0  0  0  0  0  0  0  0  0  0  0
    4.7370    1.7579    1.1183 H   0  0  0  0  0  0  0  0  0  0  0  0
    2.2979    1.5087    0.9208 H   0  0  0  0  0  0  0  0  0  0  0  0
   -1.3162    2.2115   -2.2521 H   0  0  0  0  0  0  0  0  0  0  0  0
  1  2  1  0
  2  3  2  0
  3  4  1  0
  4  5  2  0
  5  6  1  0
  6  7  2  0
  5  8  1  0
  8  9  2  0
  8 10  1  0
 10 11  1  0
 11 12  2  0
 12 13  1  0
 13 14  2  0
 14 15  1  0
 15 16  2  0
  4 17  1  0
  7  2  1  0
 16 11  1  0
  1 18  1  0
  1 19  1  0
  3 20  1  0
  6 21  1  0
  7 22  1  0
 12 23  1  0
 13 24  1  0
 14 25  1  0
 15 26  1  0
 16 27  1  0
 17 28  1  0
M  END
