
     RDKit          3D

 18 17  0  0  0  0  0  0  0  0999 V2000
    1.8611    0.9462    0.0251 C   0  0  0  0  0  0  0  0  0  0  0  0
    1.1041   -0.3276   -0.3511 C   0  0  0  0  0  0  0  0  0  0  0  0
   -0.3085   -0.4105    0.2756 C   0  0  0  0  0  0  0  0  0  0  0  0
   -0.8883   -1.8137    0.0463 C   0  0  0  0  0  0  0  0  0  0  0  0
   -1.2708    0.6514   -0.2954 C   0  0  0  0  0  0  0  0  0  0  0  0
   -0.9823    1.9111    0.2453 O   0  0  0  0  0  0  0  0  0  0  0  0
    2.9212    0.8522   -0.2922 H   0  0  0  0  0  0  0  0  0  0  0  0
    1.4296    1.8266   -0.4939 H   0  0  0  0  0  0  0  0  0  0  0  0
    1.8352    1.1074    1.1237 H   0  0  0  0  0  0  0  0  0  0  0  0
    1.7091   -1.1906    0.0047 H   0  0  0  0  0  0  0  0  0  0  0  0
    1.0385   -0.4007   -1.4589 H   0  0  0  0  0  0  0  0  0  0  0  0
   -0.2260   -0.2643    1.3760 H   0  0  0  0  0  0  0  0  0  0  0  0
   -1.0071   -2.0149   -1.0403 H   0  0  0  0  0  0  0  0  0  0  0  0
   -1.8793   -1.9079    0.5397 H   0  0  0  0  0  0  0  0  0  0  0  0
   -0.2186   -2.5849    0.4834 H   0  0  0  0  0  0  0  0  0  0  0  0
   -1.1907    0.6831   -1.4057 H   0  0  0  0  0  0  0  0  0  0  0  0
   -2.3203    0.3889   -0.0319 H   0  0  0  0  0  0  0  0  0  0  0  0
   -1.6069    2.5482   -0.1894 H   0  0  0  0  0  0  0  0  0  0  0  0
  1  2  1  0
  2  3  1  0
  3  4  1  0
  3  5  1  0
  5  6  1  0
  1  7  1  0
  1  8  1  0
  1  9  1  0
  2 10  1  0
  2 11  1  0
  3 12  1  0
  4 13  1  0
  4 14  1  0
  4 15  1  0
  5 16  1  0
  5 17  1  0
  6 18  1  0
M  END
