
     RDKit          3D

 16 16  0  0  0  0  0  0  0  0999 V2000
    3.8992   -0.5849    0.6878 Cl  0  0  0  0  0  0  0  0  0  0  0  0
    2.2103   -0.2642    0.3389 C   0  0  0  0  0  0  0  0  0  0  0  0
    1.5962   -0.8679   -0.7633 C   0  0  0  0  0  0  0  0  0  0  0  0
    0.2495   -0.6143   -1.0420 C   0  0  0  0  0  0  0  0  0  0  0  0
   -0.4918    0.2542   -0.2232 C   0  0  0  0  0  0  0  0  0  0  0  0
   -1.9469    0.5041   -0.5039 C   0  0  0  0  0  0  0  0  0  0  0  0
   -2.7698   -0.4879    0.1949 C   0  0  0  0  0  0  0  0  0  0  0  0
   -3.4193   -1.2708    0.7465 N   0  0  0  0  0  0  0  0  0  0  0  0
    0.1280    0.8472    0.8895 C   0  0  0  0  0  0  0  0  0  0  0  0
    1.4749    0.5916    1.1655 C   0  0  0  0  0  0  0  0  0  0  0  0
    2.1598   -1.5355   -1.4025 H   0  0  0  0  0  0  0  0  0  0  0  0
   -0.2155   -1.0946   -1.8941 H   0  0  0  0  0  0  0  0  0  0  0  0
   -2.1488    0.4397   -1.5944 H   0  0  0  0  0  0  0  0  0  0  0  0
   -2.2387    1.5211   -0.1652 H   0  0  0  0  0  0  0  0  0  0  0  0
   -0.4316    1.5057    1.5424 H   0  0  0  0  0  0  0  0  0  0  0  0
    1.9444    1.0565    2.0230 H   0  0  0  0  0  0  0  0  0  0  0  0
  1  2  1  0
  2  3  2  0
  3  4  1  0
  4  5  2  0
  5  6  1  0
  6  7  1  0
  7  8  3  0
  5  9  1  0
  9 10  2  0
 10  2  1  0
  3 11  1  0
  4 12  1  0
  6 13  1  0
  6 14  1  0
  9 15  1  0
 10 16  1  0
M  END
