
     RDKit          3D

 26 25  0  0  0  0  0  0  0  0999 V2000
   -3.6379    1.0022   -0.8750 C   0  0  0  0  0  0  0  0  0  0  0  0
   -3.4388   -0.4242   -0.3633 C   0  0  0  0  0  0  0  0  0  0  0  0
   -1.9755   -0.8853   -0.4443 C   0  0  0  0  0  0  0  0  0  0  0  0
   -1.0778   -0.1768    0.5778 C   0  0  0  0  0  0  0  0  0  0  0  0
    0.3070   -0.7394    0.5319 C   0  0  0  0  0  0  0  0  0  0  0  0
    0.6267   -1.6805    1.3085 O   0  0  0  0  0  0  0  0  0  0  0  0
    1.2170   -0.2466   -0.4100 O   0  0  0  0  0  0  0  0  0  0  0  0
    2.5688   -0.6937   -0.5054 C   0  0  0  0  0  0  0  0  0  0  0  0
    3.4230   -0.1272    0.6340 C   0  0  0  0  0  0  0  0  0  0  0  0
    3.4701    1.3988    0.6034 C   0  0  0  0  0  0  0  0  0  0  0  0
   -3.1433    1.7339   -0.2033 H   0  0  0  0  0  0  0  0  0  0  0  0
   -4.7230    1.2363   -0.9008 H   0  0  0  0  0  0  0  0  0  0  0  0
   -3.2297    1.1074   -1.9027 H   0  0  0  0  0  0  0  0  0  0  0  0
   -4.0565   -1.1065   -0.9866 H   0  0  0  0  0  0  0  0  0  0  0  0
   -3.8069   -0.4999    0.6829 H   0  0  0  0  0  0  0  0  0  0  0  0
   -1.9492   -1.9799   -0.2469 H   0  0  0  0  0  0  0  0  0  0  0  0
   -1.5845   -0.7189   -1.4725 H   0  0  0  0  0  0  0  0  0  0  0  0
   -1.0234    0.9092    0.3537 H   0  0  0  0  0  0  0  0  0  0  0  0
   -1.4942   -0.3015    1.6013 H   0  0  0  0  0  0  0  0  0  0  0  0
    2.6044   -1.8048   -0.4894 H   0  0  0  0  0  0  0  0  0  0  0  0
    2.9869   -0.3595   -1.4788 H   0  0  0  0  0  0  0  0  0  0  0  0
    3.0205   -0.4630    1.6133 H   0  0  0  0  0  0  0  0  0  0  0  0
    4.4577   -0.5208    0.5373 H   0  0  0  0  0  0  0  0  0  0  0  0
    2.4533    1.8217    0.7479 H   0  0  0  0  0  0  0  0  0  0  0  0
    3.8815    1.7532   -0.3657 H   0  0  0  0  0  0  0  0  0  0  0  0
    4.1242    1.7659    1.4220 H   0  0  0  0  0  0  0  0  0  0  0  0
  1  2  1  0
  2  3  1  0
  3  4  1  0
  4  5  1  0
  5  6  2  0
  5  7  1  0
  7  8  1  0
  8  9  1  0
  9 10  1  0
  1 11  1  0
  1 12  1  0
  1 13  1  0
  2 14  1  0
  2 15  1  0
  3 16  1  0
  3 17  1  0
  4 18  1  0
  4 19  1  0
  8 20  1  0
  8 21  1  0
  9 22  1  0
  9 23  1  0
 10 24  1  0
 10 25  1  0
 10 26  1  0
M  END
