
     RDKit          3D

 20 19  0  0  0  0  0  0  0  0999 V2000
   -2.3811   -0.3069    0.7258 C   0  0  0  0  0  0  0  0  0  0  0  0
   -1.8143    0.6763   -0.2976 C   0  0  0  0  0  0  0  0  0  0  0  0
   -0.5543    1.4057    0.2017 C   0  0  0  0  0  0  0  0  0  0  0  0
    0.6450    0.4898    0.5058 C   0  0  0  0  0  0  0  0  0  0  0  0
    1.1616   -0.2490   -0.7352 C   0  0  0  0  0  0  0  0  0  0  0  0
    2.4322   -0.9782   -0.4179 C   0  0  0  0  0  0  0  0  0  0  0  0
    3.6581   -0.3217   -0.4746 O   0  0  0  0  0  0  0  0  0  0  0  0
    2.3915   -2.1841   -0.0575 O   0  0  0  0  0  0  0  0  0  0  0  0
   -2.5193    0.1908    1.7092 H   0  0  0  0  0  0  0  0  0  0  0  0
   -1.7083   -1.1817    0.8425 H   0  0  0  0  0  0  0  0  0  0  0  0
   -3.3674   -0.6768    0.3748 H   0  0  0  0  0  0  0  0  0  0  0  0
   -2.5924    1.4409   -0.5111 H   0  0  0  0  0  0  0  0  0  0  0  0
   -1.6095    0.1482   -1.2522 H   0  0  0  0  0  0  0  0  0  0  0  0
   -0.8095    1.9722    1.1239 H   0  0  0  0  0  0  0  0  0  0  0  0
   -0.2514    2.1538   -0.5630 H   0  0  0  0  0  0  0  0  0  0  0  0
    0.3817   -0.2398    1.3009 H   0  0  0  0  0  0  0  0  0  0  0  0
    1.4617    1.1292    0.9083 H   0  0  0  0  0  0  0  0  0  0  0  0
    0.4052   -0.9824   -1.0867 H   0  0  0  0  0  0  0  0  0  0  0  0
    1.3530    0.4746   -1.5567 H   0  0  0  0  0  0  0  0  0  0  0  0
    3.7177    0.6540   -0.7405 H   0  0  0  0  0  0  0  0  0  0  0  0
  1  2  1  0
  2  3  1  0
  3  4  1  0
  4  5  1  0
  5  6  1  0
  6  7  1  0
  6  8  2  0
  1  9  1  0
  1 10  1  0
  1 11  1  0
  2 12  1  0
  2 13  1  0
  3 14  1  0
  3 15  1  0
  4 16  1  0
  4 17  1  0
  5 18  1  0
  5 19  1  0
  7 20  1  0
M  END
