
     RDKit          3D

 26 25  0  0  0  0  0  0  0  0999 V2000
   -4.0290   -0.7418    0.6454 C   0  0  0  0  0  0  0  0  0  0  0  0
   -3.5702    0.3930   -0.2700 C   0  0  0  0  0  0  0  0  0  0  0  0
   -2.1765    0.9259    0.0965 C   0  0  0  0  0  0  0  0  0  0  0  0
   -1.0568   -0.0704   -0.2386 C   0  0  0  0  0  0  0  0  0  0  0  0
    0.3223    0.5452    0.0265 C   0  0  0  0  0  0  0  0  0  0  0  0
    1.4399   -0.4446   -0.2957 C   0  0  0  0  0  0  0  0  0  0  0  0
    2.7011    0.1643   -0.0382 O   0  0  0  0  0  0  0  0  0  0  0  0
    3.9139   -0.4993   -0.2431 C   0  0  0  0  0  0  0  0  0  0  0  0
    5.1947    0.1972    0.0687 C   0  0  0  0  0  0  0  0  0  0  0  0
    3.9349   -1.6932   -0.6489 O   0  0  0  0  0  0  0  0  0  0  0  0
   -3.4074   -1.6478    0.4910 H   0  0  0  0  0  0  0  0  0  0  0  0
   -5.0824   -1.0023    0.4096 H   0  0  0  0  0  0  0  0  0  0  0  0
   -3.9725   -0.4301    1.7100 H   0  0  0  0  0  0  0  0  0  0  0  0
   -3.5827    0.0479   -1.3267 H   0  0  0  0  0  0  0  0  0  0  0  0
   -4.2992    1.2275   -0.1810 H   0  0  0  0  0  0  0  0  0  0  0  0
   -2.0068    1.8634   -0.4773 H   0  0  0  0  0  0  0  0  0  0  0  0
   -2.1443    1.1827    1.1783 H   0  0  0  0  0  0  0  0  0  0  0  0
   -1.1690   -0.9825    0.3858 H   0  0  0  0  0  0  0  0  0  0  0  0
   -1.1287   -0.3613   -1.3098 H   0  0  0  0  0  0  0  0  0  0  0  0
    0.3983    0.8417    1.0958 H   0  0  0  0  0  0  0  0  0  0  0  0
    0.4524    1.4539   -0.6015 H   0  0  0  0  0  0  0  0  0  0  0  0
    1.3312   -1.3521    0.3382 H   0  0  0  0  0  0  0  0  0  0  0  0
    1.3830   -0.7383   -1.3670 H   0  0  0  0  0  0  0  0  0  0  0  0
    5.5302   -0.0848    1.0882 H   0  0  0  0  0  0  0  0  0  0  0  0
    5.0491    1.2969    0.0240 H   0  0  0  0  0  0  0  0  0  0  0  0
    5.9745   -0.0912   -0.6675 H   0  0  0  0  0  0  0  0  0  0  0  0
  1  2  1  0
  2  3  1  0
  3  4  1  0
  4  5  1  0
  5  6  1  0
  6  7  1  0
  7  8  1  0
  8  9  1  0
  8 10  2  0
  1 11  1  0
  1 12  1  0
  1 13  1  0
  2 14  1  0
  2 15  1  0
  3 16  1  0
  3 17  1  0
  4 18  1  0
  4 19  1  0
  5 20  1  0
  5 21  1  0
  6 22  1  0
  6 23  1  0
  9 24  1  0
  9 25  1  0
  9 26  1  0
M  END
