
     RDKit          3D

 22 24  0  0  0  0  0  0  0  0999 V2000
    3.2655   -0.9779   -0.0847 C   0  0  0  0  0  0  0  0  0  0  0  0
    2.8077    0.3254   -0.2832 C   0  0  0  0  0  0  0  0  0  0  0  0
    1.4348    0.6002   -0.2230 C   0  0  0  0  0  0  0  0  0  0  0  0
    0.5328   -0.4586    0.0401 C   0  0  0  0  0  0  0  0  0  0  0  0
    1.0172   -1.7191    0.2287 N   0  0  0  0  0  0  0  0  0  0  0  0
    2.3467   -1.9966    0.1725 C   0  0  0  0  0  0  0  0  0  0  0  0
   -0.8520   -0.1971    0.1037 C   0  0  0  0  0  0  0  0  0  0  0  0
   -1.3217    1.1235   -0.0969 C   0  0  0  0  0  0  0  0  0  0  0  0
   -0.4188    2.1597   -0.3560 C   0  0  0  0  0  0  0  0  0  0  0  0
    0.9521    1.9015   -0.4191 C   0  0  0  0  0  0  0  0  0  0  0  0
   -2.6549    1.3888   -0.0382 N   0  0  0  0  0  0  0  0  0  0  0  0
   -3.5695    0.4150    0.2105 C   0  0  0  0  0  0  0  0  0  0  0  0
   -3.1538   -0.9014    0.4147 C   0  0  0  0  0  0  0  0  0  0  0  0
   -1.7933   -1.2095    0.3615 C   0  0  0  0  0  0  0  0  0  0  0  0
    4.3244   -1.1971   -0.1298 H   0  0  0  0  0  0  0  0  0  0  0  0
    3.5227    1.1147   -0.4827 H   0  0  0  0  0  0  0  0  0  0  0  0
    2.6909   -3.0103    0.3277 H   0  0  0  0  0  0  0  0  0  0  0  0
   -0.7788    3.1696   -0.5094 H   0  0  0  0  0  0  0  0  0  0  0  0
    1.6348    2.7184   -0.6209 H   0  0  0  0  0  0  0  0  0  0  0  0
   -4.6216    0.6634    0.2499 H   0  0  0  0  0  0  0  0  0  0  0  0
   -3.8814   -1.6778    0.6129 H   0  0  0  0  0  0  0  0  0  0  0  0
   -1.4840   -2.2349    0.5217 H   0  0  0  0  0  0  0  0  0  0  0  0
  1  2  2  0
  2  3  1  0
  3  4  2  0
  4  5  1  0
  5  6  2  0
  4  7  1  0
  7  8  2  0
  8  9  1  0
  9 10  2  0
  8 11  1  0
 11 12  2  0
 12 13  1  0
 13 14  2  0
  6  1  1  0
 10  3  1  0
 14  7  1  0
  1 15  1  0
  2 16  1  0
  6 17  1  0
  9 18  1  0
 10 19  1  0
 12 20  1  0
 13 21  1  0
 14 22  1  0
M  END
