
     RDKit          3D

 16 17  0  0  0  0  0  0  0  0999 V2000
   -1.8866   -0.9701    0.0839 C   0  0  0  0  0  0  0  0  0  0  0  0
   -0.5934   -1.4999    0.0277 C   0  0  0  0  0  0  0  0  0  0  0  0
    0.5142   -0.6401   -0.0219 C   0  0  0  0  0  0  0  0  0  0  0  0
    1.8193   -1.1386   -0.0786 C   0  0  0  0  0  0  0  0  0  0  0  0
    2.8653   -0.2728   -0.1255 N   0  0  0  0  0  0  0  0  0  0  0  0
    2.6806    1.0490   -0.1188 N   0  0  0  0  0  0  0  0  0  0  0  0
    1.4374    1.5944   -0.0648 C   0  0  0  0  0  0  0  0  0  0  0  0
    0.3190    0.7567   -0.0148 C   0  0  0  0  0  0  0  0  0  0  0  0
   -0.9817    1.2795    0.0417 C   0  0  0  0  0  0  0  0  0  0  0  0
   -2.0801    0.4150    0.0908 C   0  0  0  0  0  0  0  0  0  0  0  0
   -2.7404   -1.6342    0.1221 H   0  0  0  0  0  0  0  0  0  0  0  0
   -0.4594   -2.5750    0.0230 H   0  0  0  0  0  0  0  0  0  0  0  0
    2.0089   -2.2047   -0.0858 H   0  0  0  0  0  0  0  0  0  0  0  0
    1.3276    2.6717   -0.0612 H   0  0  0  0  0  0  0  0  0  0  0  0
   -1.1476    2.3501    0.0478 H   0  0  0  0  0  0  0  0  0  0  0  0
   -3.0832    0.8192    0.1344 H   0  0  0  0  0  0  0  0  0  0  0  0
  1  2  2  0
  2  3  1  0
  3  4  2  0
  4  5  1  0
  5  6  2  0
  6  7  1  0
  7  8  2  0
  8  9  1  0
  9 10  2  0
 10  1  1  0
  8  3  1  0
  1 11  1  0
  2 12  1  0
  4 13  1  0
  7 14  1  0
  9 15  1  0
 10 16  1  0
M  END
