
     RDKit          3D

  9  9  0  0  0  0  0  0  0  0999 V2000
   -1.0668   -0.6212   -0.0336 N   0  0  0  0  0  0  0  0  0  0  0  0
   -0.6958    0.6696    0.0120 C   0  0  0  0  0  0  0  0  0  0  0  0
    0.6803    0.7301    0.0320 C   0  0  0  0  0  0  0  0  0  0  0  0
    1.0878   -0.5887   -0.0043 C   0  0  0  0  0  0  0  0  0  0  0  0
    0.0077   -1.3925   -0.0439 N   0  0  0  0  0  0  0  0  0  0  0  0
   -2.0473   -0.9784   -0.0578 H   0  0  0  0  0  0  0  0  0  0  0  0
   -1.3793    1.5082    0.0295 H   0  0  0  0  0  0  0  0  0  0  0  0
    1.3029    1.6138    0.0681 H   0  0  0  0  0  0  0  0  0  0  0  0
    2.1105   -0.9409   -0.0020 H   0  0  0  0  0  0  0  0  0  0  0  0
  1  2  1  0
  2  3  2  0
  3  4  1  0
  4  5  2  0
  5  1  1  0
  1  6  1  0
  2  7  1  0
  3  8  1  0
  4  9  1  0
M  END
