
     RDKit          3D

 10 10  0  0  0  0  0  0  0  0999 V2000
   -1.1404    0.0712    0.0759 C   0  0  0  0  0  0  0  0  0  0  0  0
   -0.5049   -1.1689    0.0192 C   0  0  0  0  0  0  0  0  0  0  0  0
    0.8494   -1.2328   -0.0707 N   0  0  0  0  0  0  0  0  0  0  0  0
    1.5994   -0.0999   -0.1065 C   0  0  0  0  0  0  0  0  0  0  0  0
    0.9974    1.1175   -0.0523 N   0  0  0  0  0  0  0  0  0  0  0  0
   -0.3542    1.2226    0.0380 C   0  0  0  0  0  0  0  0  0  0  0  0
   -2.2182    0.1386    0.1477 H   0  0  0  0  0  0  0  0  0  0  0  0
   -1.0871   -2.0803    0.0466 H   0  0  0  0  0  0  0  0  0  0  0  0
    2.6762   -0.1672   -0.1782 H   0  0  0  0  0  0  0  0  0  0  0  0
   -0.8175    2.1993    0.0802 H   0  0  0  0  0  0  0  0  0  0  0  0
  1  2  2  0
  2  3  1  0
  3  4  2  0
  4  5  1  0
  5  6  2  0
  6  1  1  0
  1  7  1  0
  2  8  1  0
  4  9  1  0
  6 10  1  0
M  END
