
     RDKit          3D

 15 15  0  0  0  0  0  0  0  0999 V2000
   -2.9835    0.1870   -0.0777 O   0  0  0  0  0  0  0  0  0  0  0  0
   -1.5916    0.0892   -0.0406 C   0  0  0  0  0  0  0  0  0  0  0  0
   -0.7687    1.2305   -0.1192 C   0  0  0  0  0  0  0  0  0  0  0  0
   -1.5540    3.1910   -0.3000 I   0  0  0  0  0  0  0  0  0  0  0  0
    0.6235    1.0902   -0.0785 C   0  0  0  0  0  0  0  0  0  0  0  0
    1.2158   -0.1779    0.0402 C   0  0  0  0  0  0  0  0  0  0  0  0
    0.3875   -1.3103    0.1180 C   0  0  0  0  0  0  0  0  0  0  0  0
   -1.0038   -1.1784    0.0780 C   0  0  0  0  0  0  0  0  0  0  0  0
   -2.2000   -2.9187    0.1991 I   0  0  0  0  0  0  0  0  0  0  0  0
    2.6487   -0.3115    0.0812 N   0  0  0  0  0  4  0  0  0  0  0  0
    3.4573    0.7995    0.0048 O   0  0  0  0  0  1  0  0  0  0  0  0
    3.1810   -1.4360    0.1866 O   0  0  0  0  0  0  0  0  0  0  0  0
   -3.4725    1.0680   -0.1618 H   0  0  0  0  0  0  0  0  0  0  0  0
    1.2415    1.9764   -0.1400 H   0  0  0  0  0  0  0  0  0  0  0  0
    0.8186   -2.2988    0.2099 H   0  0  0  0  0  0  0  0  0  0  0  0
  1  2  1  0
  2  3  2  0
  3  4  1  0
  3  5  1  0
  5  6  2  0
  6  7  1  0
  7  8  2  0
  8  9  1  0
  6 10  1  0
 10 11  1  0
 10 12  2  0
  8  2  1  0
  1 13  1  0
  5 14  1  0
  7 15  1  0
M  CHG  2  10   1  11  -1
M  END
