
     RDKit          3D

 15 14  0  0  0  0  0  0  0  0999 V2000
   -2.7037    0.2234    0.0225 C   0  0  0  0  0  0  0  0  0  0  0  0
   -1.3124   -0.1094   -0.4945 C   0  0  0  0  0  0  0  0  0  0  0  0
   -0.0585    0.3704    0.7405 S   0  0  0  0  0  0  0  0  0  0  0  0
    1.3593   -0.1872   -0.2629 C   0  0  0  0  0  0  0  0  0  0  0  0
    2.6578    0.0672    0.4872 C   0  0  0  0  0  0  0  0  0  0  0  0
   -2.7907    1.3145    0.2113 H   0  0  0  0  0  0  0  0  0  0  0  0
   -2.9039   -0.3295    0.9648 H   0  0  0  0  0  0  0  0  0  0  0  0
   -3.4626   -0.0706   -0.7329 H   0  0  0  0  0  0  0  0  0  0  0  0
   -1.1335    0.4414   -1.4425 H   0  0  0  0  0  0  0  0  0  0  0  0
   -1.2466   -1.2011   -0.6896 H   0  0  0  0  0  0  0  0  0  0  0  0
    1.2650   -1.2743   -0.4719 H   0  0  0  0  0  0  0  0  0  0  0  0
    1.3781    0.3682   -1.2249 H   0  0  0  0  0  0  0  0  0  0  0  0
    2.6608   -0.4915    1.4471 H   0  0  0  0  0  0  0  0  0  0  0  0
    2.7739    1.1524    0.6935 H   0  0  0  0  0  0  0  0  0  0  0  0
    3.5170   -0.2739   -0.1280 H   0  0  0  0  0  0  0  0  0  0  0  0
  1  2  1  0
  2  3  1  0
  3  4  1  0
  4  5  1  0
  1  6  1  0
  1  7  1  0
  1  8  1  0
  2  9  1  0
  2 10  1  0
  4 11  1  0
  4 12  1  0
  5 13  1  0
  5 14  1  0
  5 15  1  0
M  END
