
     RDKit          3D

 14 14  0  0  0  0  0  0  0  0999 V2000
    2.2970   -0.0872    0.4846 N   0  0  0  0  0  0  0  0  0  0  0  0
    0.8988   -0.0341    0.1896 C   0  0  0  0  0  0  0  0  0  0  0  0
    0.2945   -1.0586   -0.5548 C   0  0  0  0  0  0  0  0  0  0  0  0
   -1.0733   -1.0054   -0.8426 C   0  0  0  0  0  0  0  0  0  0  0  0
   -1.8435    0.0700   -0.3889 C   0  0  0  0  0  0  0  0  0  0  0  0
   -3.1692    0.1203   -0.6686 F   0  0  0  0  0  0  0  0  0  0  0  0
   -1.2459    1.0934    0.3533 C   0  0  0  0  0  0  0  0  0  0  0  0
    0.1217    1.0428    0.6426 C   0  0  0  0  0  0  0  0  0  0  0  0
    2.8836   -0.8847    0.1517 H   0  0  0  0  0  0  0  0  0  0  0  0
    2.7557    0.6706    1.0379 H   0  0  0  0  0  0  0  0  0  0  0  0
    0.8821   -1.8955   -0.9106 H   0  0  0  0  0  0  0  0  0  0  0  0
   -1.5350   -1.7981   -1.4172 H   0  0  0  0  0  0  0  0  0  0  0  0
   -1.8413    1.9263    0.7050 H   0  0  0  0  0  0  0  0  0  0  0  0
    0.5748    1.8402    1.2180 H   0  0  0  0  0  0  0  0  0  0  0  0
  1  2  1  0
  2  3  2  0
  3  4  1  0
  4  5  2  0
  5  6  1  0
  5  7  1  0
  7  8  2  0
  8  2  1  0
  1  9  1  0
  1 10  1  0
  3 11  1  0
  4 12  1  0
  7 13  1  0
  8 14  1  0
M  END
