
     RDKit          3D

 16 16  0  0  0  0  0  0  0  0999 V2000
    3.1908   -0.4081    0.3019 O   0  0  0  0  0  0  0  0  0  0  0  0
    1.8131   -0.2484    0.1714 C   0  0  0  0  0  0  0  0  0  0  0  0
    1.1909    0.9421    0.5687 C   0  0  0  0  0  0  0  0  0  0  0  0
   -0.1929    1.0910    0.4337 C   0  0  0  0  0  0  0  0  0  0  0  0
   -0.9749    0.0423   -0.0830 C   0  0  0  0  0  0  0  0  0  0  0  0
   -0.3385   -1.1396   -0.5031 C   0  0  0  0  0  0  0  0  0  0  0  0
    1.0455   -1.2853   -0.3667 C   0  0  0  0  0  0  0  0  0  0  0  0
   -2.4599    0.2201   -0.2755 C   0  0  0  0  0  0  0  0  0  0  0  0
   -2.6951    0.7608   -1.5258 F   0  0  0  0  0  0  0  0  0  0  0  0
   -3.1143   -0.9958   -0.1795 F   0  0  0  0  0  0  0  0  0  0  0  0
   -2.9796    1.0679    0.6875 F   0  0  0  0  0  0  0  0  0  0  0  0
    3.7747    0.3253    0.6866 H   0  0  0  0  0  0  0  0  0  0  0  0
    1.7789    1.7545    0.9764 H   0  0  0  0  0  0  0  0  0  0  0  0
   -0.6510    2.0259    0.7312 H   0  0  0  0  0  0  0  0  0  0  0  0
   -0.9105   -1.9494   -0.9384 H   0  0  0  0  0  0  0  0  0  0  0  0
    1.5228   -2.2033   -0.6854 H   0  0  0  0  0  0  0  0  0  0  0  0
  1  2  1  0
  2  3  2  0
  3  4  1  0
  4  5  2  0
  5  6  1  0
  6  7  2  0
  5  8  1  0
  8  9  1  0
  8 10  1  0
  8 11  1  0
  7  2  1  0
  1 12  1  0
  3 13  1  0
  4 14  1  0
  6 15  1  0
  7 16  1  0
M  END
