
     RDKit          3D

 20 21  0  0  0  0  0  0  0  0999 V2000
   -1.6452   -2.5539   -0.4213 O   0  0  0  0  0  0  0  0  0  0  0  0
   -1.3412   -1.2178   -0.1492 C   0  0  0  0  0  0  0  0  0  0  0  0
   -0.0115   -0.7239   -0.0463 C   0  0  0  0  0  0  0  0  0  0  0  0
    1.1863   -1.6159   -0.0181 C   0  0  0  0  0  0  0  0  0  0  0  0
    1.0788   -2.8606    0.1335 O   0  0  0  0  0  0  0  0  0  0  0  0
    2.5389   -1.0398   -0.0858 C   0  0  0  0  0  0  0  0  0  0  0  0
    2.7289    0.2770   -0.0339 C   0  0  0  0  0  0  0  0  0  0  0  0
    1.5921    1.2011    0.0890 C   0  0  0  0  0  0  0  0  0  0  0  0
    1.8258    2.4351    0.1901 O   0  0  0  0  0  0  0  0  0  0  0  0
    0.1972    0.6762    0.0806 C   0  0  0  0  0  0  0  0  0  0  0  0
   -0.9134    1.5431    0.1916 C   0  0  0  0  0  0  0  0  0  0  0  0
   -0.7351    2.9197    0.3333 O   0  0  0  0  0  0  0  0  0  0  0  0
   -2.2096    1.0229    0.1647 C   0  0  0  0  0  0  0  0  0  0  0  0
   -2.4185   -0.3409   -0.0078 C   0  0  0  0  0  0  0  0  0  0  0  0
   -0.9912   -3.2131   -0.8172 H   0  0  0  0  0  0  0  0  0  0  0  0
    3.3966   -1.6985   -0.1469 H   0  0  0  0  0  0  0  0  0  0  0  0
    3.7372    0.6714   -0.0649 H   0  0  0  0  0  0  0  0  0  0  0  0
   -1.5211    3.5541    0.4154 H   0  0  0  0  0  0  0  0  0  0  0  0
   -3.0632    1.6826    0.2566 H   0  0  0  0  0  0  0  0  0  0  0  0
   -3.4319   -0.7189   -0.0632 H   0  0  0  0  0  0  0  0  0  0  0  0
  1  2  1  0
  2  3  2  0
  3  4  1  0
  4  5  2  0
  4  6  1  0
  6  7  2  0
  7  8  1  0
  8  9  2  0
  8 10  1  0
 10 11  2  0
 11 12  1  0
 11 13  1  0
 13 14  2  0
 14  2  1  0
 10  3  1  0
  1 15  1  0
  6 16  1  0
  7 17  1  0
 12 18  1  0
 13 19  1  0
 14 20  1  0
M  END
