
     RDKit          3D

 17 17  0  0  0  0  0  0  0  0999 V2000
    2.6533   -1.6455    0.3144 O   0  0  0  0  0  0  0  0  0  0  0  0
    1.4831   -0.9022    0.1755 C   0  0  0  0  0  0  0  0  0  0  0  0
    1.5503    0.4911    0.1613 C   0  0  0  0  0  0  0  0  0  0  0  0
    0.3856    1.2585    0.0227 C   0  0  0  0  0  0  0  0  0  0  0  0
   -0.8697    0.6256   -0.1044 C   0  0  0  0  0  0  0  0  0  0  0  0
   -2.0899    1.4565   -0.2501 C   0  0  0  0  0  0  0  0  0  0  0  0
   -3.2325    0.9399   -0.3666 O   0  0  0  0  0  0  0  0  0  0  0  0
   -0.9312   -0.7880   -0.0893 C   0  0  0  0  0  0  0  0  0  0  0  0
    0.2447   -1.5389    0.0503 C   0  0  0  0  0  0  0  0  0  0  0  0
   -2.1532   -1.4499   -0.2123 O   0  0  0  0  0  0  0  0  0  0  0  0
    0.4767    2.6510    0.0112 O   0  0  0  0  0  0  0  0  0  0  0  0
    2.6390   -2.6586    0.3284 H   0  0  0  0  0  0  0  0  0  0  0  0
    2.5119    0.9796    0.2586 H   0  0  0  0  0  0  0  0  0  0  0  0
   -2.0145    2.5359   -0.2585 H   0  0  0  0  0  0  0  0  0  0  0  0
    0.1949   -2.6206    0.0615 H   0  0  0  0  0  0  0  0  0  0  0  0
   -2.2150   -2.4614   -0.2035 H   0  0  0  0  0  0  0  0  0  0  0  0
    1.3667    3.1271    0.1008 H   0  0  0  0  0  0  0  0  0  0  0  0
  1  2  1  0
  2  3  2  0
  3  4  1  0
  4  5  2  0
  5  6  1  0
  6  7  2  0
  5  8  1  0
  8  9  2  0
  8 10  1  0
  4 11  1  0
  9  2  1  0
  1 12  1  0
  3 13  1  0
  6 14  1  0
  9 15  1  0
 10 16  1  0
 11 17  1  0
M  END
