
     RDKit          3D

 13 13  0  0  0  0  0  0  0  0999 V2000
   -3.0649   -0.6098    0.0368 O   0  0  0  0  0  0  0  0  0  0  0  0
   -2.2030    0.3006   -0.0863 C   0  0  0  0  0  0  0  0  0  0  0  0
   -0.7622   -0.0013   -0.0138 C   0  0  0  0  0  0  0  0  0  0  0  0
    0.1769    1.0302   -0.1539 C   0  0  0  0  0  0  0  0  0  0  0  0
    1.5424    0.7469   -0.0856 C   0  0  0  0  0  0  0  0  0  0  0  0
    1.9583   -0.5690    0.1228 C   0  0  0  0  0  0  0  0  0  0  0  0
    1.0382   -1.5605    0.2572 N   0  0  0  0  0  0  0  0  0  0  0  0
   -0.2974   -1.3108    0.1945 C   0  0  0  0  0  0  0  0  0  0  0  0
   -2.5351    1.3183   -0.2477 H   0  0  0  0  0  0  0  0  0  0  0  0
   -0.1460    2.0515   -0.3157 H   0  0  0  0  0  0  0  0  0  0  0  0
    2.2712    1.5398   -0.1932 H   0  0  0  0  0  0  0  0  0  0  0  0
    3.0132   -0.8027    0.1778 H   0  0  0  0  0  0  0  0  0  0  0  0
   -0.9916   -2.1334    0.3073 H   0  0  0  0  0  0  0  0  0  0  0  0
  1  2  2  0
  2  3  1  0
  3  4  2  0
  4  5  1  0
  5  6  2  0
  6  7  1  0
  7  8  2  0
  8  3  1  0
  2  9  1  0
  4 10  1  0
  5 11  1  0
  6 12  1  0
  8 13  1  0
M  END
