
     RDKit          3D

 17 16  0  0  0  0  0  0  0  0999 V2000
    1.0511    1.3907    0.1758 C   0  0  0  0  0  0  0  0  0  0  0  0
    0.7444   -0.0741    0.5164 C   0  0  0  0  0  0  0  0  0  0  0  0
    1.1126   -0.9957   -0.6545 C   0  0  0  0  0  0  0  0  0  0  0  0
   -0.7181   -0.2702    0.9724 C   0  0  0  0  0  0  0  0  0  0  0  0
   -1.7226    0.0648   -0.0910 C   0  0  0  0  0  0  0  0  0  0  0  0
   -2.1390   -0.9158   -0.9860 O   0  0  0  0  0  0  0  0  0  0  0  0
   -2.1757    1.2369   -0.1864 O   0  0  0  0  0  0  0  0  0  0  0  0
    0.7794    2.0483    1.0289 H   0  0  0  0  0  0  0  0  0  0  0  0
    2.1369    1.5144   -0.0239 H   0  0  0  0  0  0  0  0  0  0  0  0
    0.4885    1.7162   -0.7248 H   0  0  0  0  0  0  0  0  0  0  0  0
    1.3936   -0.3561    1.3751 H   0  0  0  0  0  0  0  0  0  0  0  0
    0.8833   -2.0521   -0.3986 H   0  0  0  0  0  0  0  0  0  0  0  0
    0.5526   -0.7165   -1.5721 H   0  0  0  0  0  0  0  0  0  0  0  0
    2.2000   -0.9201   -0.8693 H   0  0  0  0  0  0  0  0  0  0  0  0
   -0.9119    0.3585    1.8690 H   0  0  0  0  0  0  0  0  0  0  0  0
   -0.8664   -1.3267    1.2845 H   0  0  0  0  0  0  0  0  0  0  0  0
   -2.8087   -0.7026   -1.7155 H   0  0  0  0  0  0  0  0  0  0  0  0
  1  2  1  0
  2  3  1  0
  2  4  1  0
  4  5  1  0
  5  6  1  0
  5  7  2  0
  1  8  1  0
  1  9  1  0
  1 10  1  0
  2 11  1  0
  3 12  1  0
  3 13  1  0
  3 14  1  0
  4 15  1  0
  4 16  1  0
  6 17  1  0
M  END
