
     RDKit          3D

 22 22  0  0  0  0  0  0  0  0999 V2000
   -0.9886    2.8810   -0.3732 C   0  0  0  0  0  0  0  0  0  0  0  0
   -0.4877    1.4742   -0.2251 C   0  0  0  0  0  0  0  0  0  0  0  0
    0.8879    1.2191   -0.1710 C   0  0  0  0  0  0  0  0  0  0  0  0
    1.3648   -0.0890    0.0018 C   0  0  0  0  0  0  0  0  0  0  0  0
    0.4542   -1.1537    0.1426 C   0  0  0  0  0  0  0  0  0  0  0  0
    0.9536   -2.4482    0.3192 O   0  0  0  0  0  0  0  0  0  0  0  0
   -0.9364   -0.8991    0.1072 C   0  0  0  0  0  0  0  0  0  0  0  0
   -1.3932    0.4171   -0.0704 C   0  0  0  0  0  0  0  0  0  0  0  0
   -1.9356   -2.0131    0.2621 C   0  0  0  0  0  0  0  0  0  0  0  0
    2.8447   -0.3491    0.0539 C   0  0  0  0  0  0  0  0  0  0  0  0
   -0.2748    3.4916   -0.9663 H   0  0  0  0  0  0  0  0  0  0  0  0
   -1.1081    3.3378    0.6314 H   0  0  0  0  0  0  0  0  0  0  0  0
   -1.9682    2.8957   -0.8969 H   0  0  0  0  0  0  0  0  0  0  0  0
    1.5874    2.0415   -0.2651 H   0  0  0  0  0  0  0  0  0  0  0  0
    0.3612   -3.2613    0.4280 H   0  0  0  0  0  0  0  0  0  0  0  0
   -2.4572    0.6224   -0.0885 H   0  0  0  0  0  0  0  0  0  0  0  0
   -1.7977   -2.5073    1.2468 H   0  0  0  0  0  0  0  0  0  0  0  0
   -1.7975   -2.7574   -0.5501 H   0  0  0  0  0  0  0  0  0  0  0  0
   -2.9804   -1.6392    0.2096 H   0  0  0  0  0  0  0  0  0  0  0  0
    3.1176   -0.7490    1.0531 H   0  0  0  0  0  0  0  0  0  0  0  0
    3.1230   -1.0912   -0.7238 H   0  0  0  0  0  0  0  0  0  0  0  0
    3.4312    0.5771   -0.1255 H   0  0  0  0  0  0  0  0  0  0  0  0
  1  2  1  0
  2  3  2  0
  3  4  1  0
  4  5  2  0
  5  6  1  0
  5  7  1  0
  7  8  2  0
  7  9  1  0
  4 10  1  0
  8  2  1  0
  1 11  1  0
  1 12  1  0
  1 13  1  0
  3 14  1  0
  6 15  1  0
  8 16  1  0
  9 17  1  0
  9 18  1  0
  9 19  1  0
 10 20  1  0
 10 21  1  0
 10 22  1  0
M  END
