
     RDKit          3D

 15 14  0  0  0  0  0  0  0  0999 V2000
    0.0320    1.4107    0.4883 N   0  0  0  0  0  0  0  0  0  0  0  0
   -0.1215    0.3160   -0.4725 C   0  0  0  0  0  0  0  0  0  0  0  0
   -1.2911   -0.6017   -0.0667 C   0  0  0  0  0  0  0  0  0  0  0  0
   -1.0996   -1.1430    1.2137 O   0  0  0  0  0  0  0  0  0  0  0  0
    1.1975   -0.4676   -0.6171 C   0  0  0  0  0  0  0  0  0  0  0  0
    1.6188   -0.9965    0.6125 O   0  0  0  0  0  0  0  0  0  0  0  0
    0.7757    2.0564    0.1356 H   0  0  0  0  0  0  0  0  0  0  0  0
   -0.8530    1.9687    0.4958 H   0  0  0  0  0  0  0  0  0  0  0  0
   -0.3655    0.7468   -1.4705 H   0  0  0  0  0  0  0  0  0  0  0  0
   -2.2492   -0.0341   -0.1081 H   0  0  0  0  0  0  0  0  0  0  0  0
   -1.3781   -1.4353   -0.7959 H   0  0  0  0  0  0  0  0  0  0  0  0
   -1.3818   -0.4482    1.8641 H   0  0  0  0  0  0  0  0  0  0  0  0
    1.9856    0.1941   -1.0448 H   0  0  0  0  0  0  0  0  0  0  0  0
    1.0546   -1.3042   -1.3339 H   0  0  0  0  0  0  0  0  0  0  0  0
    2.0756   -0.2620    1.0994 H   0  0  0  0  0  0  0  0  0  0  0  0
  1  2  1  0
  2  3  1  0
  3  4  1  0
  2  5  1  0
  5  6  1  0
  1  7  1  0
  1  8  1  0
  2  9  1  0
  3 10  1  0
  3 11  1  0
  4 12  1  0
  5 13  1  0
  5 14  1  0
  6 15  1  0
M  END
