
     RDKit          3D

 16 16  0  0  0  0  0  0  0  0999 V2000
    1.5832   -2.2859    1.2029 O   0  0  0  0  0  1  0  0  0  0  0  0
    0.6920   -2.1034    0.1707 N   0  0  0  0  0  4  0  0  0  0  0  0
    0.3089   -3.0995   -0.4771 O   0  0  0  0  0  0  0  0  0  0  0  0
    0.0273   -0.8397    0.0074 C   0  0  0  0  0  0  0  0  0  0  0  0
    0.7345    0.3879    0.0850 C   0  0  0  0  0  0  0  0  0  0  0  0
    2.2104    0.4250    0.1930 C   0  0  0  0  0  0  0  0  0  0  0  0
    2.8156    1.5025    0.4388 O   0  0  0  0  0  0  0  0  0  0  0  0
    0.0194    1.5977   -0.0079 C   0  0  0  0  0  0  0  0  0  0  0  0
   -1.3634    1.5949   -0.1986 C   0  0  0  0  0  0  0  0  0  0  0  0
   -2.0521    0.3882   -0.3042 C   0  0  0  0  0  0  0  0  0  0  0  0
   -1.3631   -0.8210   -0.2037 C   0  0  0  0  0  0  0  0  0  0  0  0
    2.7984   -0.4694    0.0453 H   0  0  0  0  0  0  0  0  0  0  0  0
    0.5324    2.5500    0.0461 H   0  0  0  0  0  0  0  0  0  0  0  0
   -1.9006    2.5316   -0.2748 H   0  0  0  0  0  0  0  0  0  0  0  0
   -3.1238    0.3891   -0.4566 H   0  0  0  0  0  0  0  0  0  0  0  0
   -1.9191   -1.7481   -0.2662 H   0  0  0  0  0  0  0  0  0  0  0  0
  1  2  1  0
  2  3  2  0
  2  4  1  0
  4  5  2  0
  5  6  1  0
  6  7  2  0
  5  8  1  0
  8  9  2  0
  9 10  1  0
 10 11  2  0
 11  4  1  0
  6 12  1  0
  8 13  1  0
  9 14  1  0
 10 15  1  0
 11 16  1  0
M  CHG  2   1  -1   2   1
M  END
