
     RDKit          3D

 14 14  0  0  0  0  0  0  0  0999 V2000
   -2.3576    0.1047    0.1116 N   0  0  0  0  0  0  0  0  0  0  0  0
   -0.9281    0.0308    0.0433 C   0  0  0  0  0  0  0  0  0  0  0  0
   -0.3083   -1.2246   -0.0588 C   0  0  0  0  0  0  0  0  0  0  0  0
    1.0837   -1.3242   -0.1269 C   0  0  0  0  0  0  0  0  0  0  0  0
    1.8709   -0.1704   -0.0937 C   0  0  0  0  0  0  0  0  0  0  0  0
    3.6184   -0.2972   -0.1793 Cl  0  0  0  0  0  0  0  0  0  0  0  0
    1.2644    1.0852    0.0078 C   0  0  0  0  0  0  0  0  0  0  0  0
   -0.1304    1.1943    0.0766 C   0  0  0  0  0  0  0  0  0  0  0  0
   -0.8383    2.8001    0.2034 Cl  0  0  0  0  0  0  0  0  0  0  0  0
   -2.9350   -0.7654    0.0858 H   0  0  0  0  0  0  0  0  0  0  0  0
   -2.8607    1.0154    0.1880 H   0  0  0  0  0  0  0  0  0  0  0  0
   -0.9055   -2.1274   -0.0856 H   0  0  0  0  0  0  0  0  0  0  0  0
    1.5489   -2.2987   -0.2055 H   0  0  0  0  0  0  0  0  0  0  0  0
    1.8776    1.9774    0.0333 H   0  0  0  0  0  0  0  0  0  0  0  0
  1  2  1  0
  2  3  2  0
  3  4  1  0
  4  5  2  0
  5  6  1  0
  5  7  1  0
  7  8  2  0
  8  9  1  0
  8  2  1  0
  1 10  1  0
  1 11  1  0
  3 12  1  0
  4 13  1  0
  7 14  1  0
M  END
