
     RDKit          3D

 15 15  0  0  0  0  0  0  0  0999 V2000
   -2.4574   -1.3667    0.3013 O   0  0  0  0  0  0  0  0  0  0  0  0
   -1.3409   -0.5395    0.2015 C   0  0  0  0  0  0  0  0  0  0  0  0
   -1.4427    0.8312    0.4705 C   0  0  0  0  0  0  0  0  0  0  0  0
   -0.3161    1.6498    0.3669 C   0  0  0  0  0  0  0  0  0  0  0  0
    0.9163    1.1052   -0.0053 C   0  0  0  0  0  0  0  0  0  0  0  0
    1.0346   -0.2695   -0.2787 C   0  0  0  0  0  0  0  0  0  0  0  0
   -0.1077   -1.0863   -0.1713 C   0  0  0  0  0  0  0  0  0  0  0  0
    2.3044   -0.8287   -0.6619 N   0  0  0  0  0  4  0  0  0  0  0  0
    3.4185   -0.0275   -0.7658 O   0  0  0  0  0  1  0  0  0  0  0  0
    2.4159   -2.0482   -0.9059 O   0  0  0  0  0  0  0  0  0  0  0  0
   -3.3644   -1.0022    0.5687 H   0  0  0  0  0  0  0  0  0  0  0  0
   -2.3929    1.2620    0.7595 H   0  0  0  0  0  0  0  0  0  0  0  0
   -0.3977    2.7088    0.5754 H   0  0  0  0  0  0  0  0  0  0  0  0
    1.7753    1.7593   -0.0789 H   0  0  0  0  0  0  0  0  0  0  0  0
   -0.0452   -2.1476   -0.3760 H   0  0  0  0  0  0  0  0  0  0  0  0
  1  2  1  0
  2  3  2  0
  3  4  1  0
  4  5  2  0
  5  6  1  0
  6  7  2  0
  6  8  1  0
  8  9  1  0
  8 10  2  0
  7  2  1  0
  1 11  1  0
  3 12  1  0
  4 13  1  0
  5 14  1  0
  7 15  1  0
M  CHG  2   8   1   9  -1
M  END
