
     RDKit          3D

  9  8  0  0  0  0  0  0  0  0999 V2000
    1.8291   -0.5612    1.6523 I   0  0  0  0  0  0  0  0  0  0  0  0
    1.0689   -0.0510   -0.2804 C   0  0  0  0  0  0  0  0  0  0  0  0
   -0.3082    0.5322   -0.1728 C   0  0  0  0  0  0  0  0  0  0  0  0
   -1.3549   -0.2112    0.1957 C   0  0  0  0  0  0  0  0  0  0  0  0
    1.7518    0.6973   -0.7342 H   0  0  0  0  0  0  0  0  0  0  0  0
    1.0531   -0.9538   -0.9273 H   0  0  0  0  0  0  0  0  0  0  0  0
   -0.4617    1.5769   -0.4266 H   0  0  0  0  0  0  0  0  0  0  0  0
   -1.2350   -1.2624    0.4401 H   0  0  0  0  0  0  0  0  0  0  0  0
   -2.3432    0.2332    0.2532 H   0  0  0  0  0  0  0  0  0  0  0  0
  1  2  1  0
  2  3  1  0
  3  4  2  3
  2  5  1  0
  2  6  1  0
  3  7  1  0
  4  8  1  0
  4  9  1  0
M  END
