
     RDKit          3D

 24 23  0  0  0  0  0  0  0  0999 V2000
   -2.6992    1.1556   -0.4046 C   0  0  0  0  0  0  0  0  0  0  0  0
   -1.2394    1.3567   -0.8025 C   0  0  0  0  0  0  0  0  0  0  0  0
   -0.8233    0.3735   -1.8659 C   0  0  0  0  0  0  0  0  0  0  0  0
   -0.4793   -0.9086   -1.6399 C   0  0  0  0  0  0  0  0  0  0  0  0
   -0.3978   -1.5622   -0.2798 C   0  0  0  0  0  0  0  0  0  0  0  0
    1.0520   -1.9102    0.0805 C   0  0  0  0  0  0  0  0  0  0  0  0
    1.9001   -0.6826    0.2626 C   0  0  0  0  0  0  0  0  0  0  0  0
    1.7524    0.1172    1.3241 C   0  0  0  0  0  0  0  0  0  0  0  0
    2.5708    1.3223    1.5230 C   0  0  0  0  0  0  0  0  0  0  0  0
    3.4559    1.6599    0.6922 O   0  0  0  0  0  0  0  0  0  0  0  0
   -2.8653    0.1374    0.0039 H   0  0  0  0  0  0  0  0  0  0  0  0
   -2.9768    1.8979    0.3730 H   0  0  0  0  0  0  0  0  0  0  0  0
   -3.3591    1.3023   -1.2864 H   0  0  0  0  0  0  0  0  0  0  0  0
   -0.5776    1.2898    0.0855 H   0  0  0  0  0  0  0  0  0  0  0  0
   -1.1304    2.3841   -1.2114 H   0  0  0  0  0  0  0  0  0  0  0  0
   -0.7899    0.7340   -2.8902 H   0  0  0  0  0  0  0  0  0  0  0  0
   -0.1896   -1.5123   -2.4955 H   0  0  0  0  0  0  0  0  0  0  0  0
   -0.9842   -2.5046   -0.3213 H   0  0  0  0  0  0  0  0  0  0  0  0
   -0.8467   -0.9465    0.5246 H   0  0  0  0  0  0  0  0  0  0  0  0
    1.0669   -2.5109    1.0160 H   0  0  0  0  0  0  0  0  0  0  0  0
    1.4908   -2.5401   -0.7239 H   0  0  0  0  0  0  0  0  0  0  0  0
    2.6589   -0.4707   -0.4812 H   0  0  0  0  0  0  0  0  0  0  0  0
    1.0027   -0.1147    2.0709 H   0  0  0  0  0  0  0  0  0  0  0  0
    2.4079    1.9328    2.4010 H   0  0  0  0  0  0  0  0  0  0  0  0
  1  2  1  0
  2  3  1  0
  3  4  2  0
  4  5  1  0
  5  6  1  0
  6  7  1  0
  7  8  2  0
  8  9  1  0
  9 10  2  0
  1 11  1  0
  1 12  1  0
  1 13  1  0
  2 14  1  0
  2 15  1  0
  3 16  1  0
  4 17  1  0
  5 18  1  0
  5 19  1  0
  6 20  1  0
  6 21  1  0
  7 22  1  0
  8 23  1  0
  9 24  1  0
M  END
