
     RDKit          3D

 20 20  0  0  0  0  0  0  0  0999 V2000
    2.3817    0.1173   -0.3487 C   0  0  0  0  0  0  0  0  0  0  0  0
    1.0404    0.0724    0.3903 C   0  0  0  0  0  0  0  0  0  0  0  0
    0.2577   -1.2013    0.0124 C   0  0  0  0  0  0  0  0  0  0  0  0
   -1.1721   -1.1511    0.5707 C   0  0  0  0  0  0  0  0  0  0  0  0
   -1.9695    0.0930    0.1058 C   0  0  0  0  0  0  0  0  0  0  0  0
   -1.1177    1.1793   -0.5754 C   0  0  0  0  0  0  0  0  0  0  0  0
    0.2241    1.3092    0.0908 C   0  0  0  0  0  0  0  0  0  0  0  0
    0.6523    2.4141    0.3891 O   0  0  0  0  0  0  0  0  0  0  0  0
    2.9730   -0.7955   -0.1222 H   0  0  0  0  0  0  0  0  0  0  0  0
    2.9713    1.0002   -0.0214 H   0  0  0  0  0  0  0  0  0  0  0  0
    2.2218    0.1793   -1.4468 H   0  0  0  0  0  0  0  0  0  0  0  0
    1.2422    0.0481    1.4842 H   0  0  0  0  0  0  0  0  0  0  0  0
    0.7785   -2.0938    0.4231 H   0  0  0  0  0  0  0  0  0  0  0  0
    0.2106   -1.3144   -1.0937 H   0  0  0  0  0  0  0  0  0  0  0  0
   -1.7129   -2.0733    0.2664 H   0  0  0  0  0  0  0  0  0  0  0  0
   -1.1175   -1.1555    1.6818 H   0  0  0  0  0  0  0  0  0  0  0  0
   -2.4795    0.5392    0.9877 H   0  0  0  0  0  0  0  0  0  0  0  0
   -2.7665   -0.2230   -0.6021 H   0  0  0  0  0  0  0  0  0  0  0  0
   -0.9557    0.9072   -1.6407 H   0  0  0  0  0  0  0  0  0  0  0  0
   -1.6620    2.1487   -0.5512 H   0  0  0  0  0  0  0  0  0  0  0  0
  1  2  1  0
  2  3  1  0
  3  4  1  0
  4  5  1  0
  5  6  1  0
  6  7  1  0
  7  8  2  0
  7  2  1  0
  1  9  1  0
  1 10  1  0
  1 11  1  0
  2 12  1  0
  3 13  1  0
  3 14  1  0
  4 15  1  0
  4 16  1  0
  5 17  1  0
  5 18  1  0
  6 19  1  0
  6 20  1  0
M  END
