
     RDKit          3D

 20 20  0  0  0  0  0  0  0  0999 V2000
   -2.5646   -0.4508    0.2036 C   0  0  0  0  0  0  0  0  0  0  0  0
   -1.2162    0.2120    0.1078 C   0  0  0  0  0  0  0  0  0  0  0  0
   -0.0250   -0.5493    0.0029 C   0  0  0  0  0  0  0  0  0  0  0  0
    1.2215    0.1175   -0.0949 C   0  0  0  0  0  0  0  0  0  0  0  0
    1.2587    1.5207   -0.1030 C   0  0  0  0  0  0  0  0  0  0  0  0
    0.0847    2.2611    0.0168 C   0  0  0  0  0  0  0  0  0  0  0  0
   -1.1438    1.6136    0.1297 C   0  0  0  0  0  0  0  0  0  0  0  0
    2.5140   -0.6469   -0.1997 C   0  0  0  0  0  0  0  0  0  0  0  0
   -0.0795   -1.9855   -0.0078 N   0  0  0  0  0  4  0  0  0  0  0  0
    0.5399   -2.6968   -1.0090 O   0  0  0  0  0  1  0  0  0  0  0  0
   -0.6821   -2.6014    0.8951 O   0  0  0  0  0  0  0  0  0  0  0  0
   -2.7130   -0.8469    1.2298 H   0  0  0  0  0  0  0  0  0  0  0  0
   -2.6394   -1.2817   -0.5294 H   0  0  0  0  0  0  0  0  0  0  0  0
   -3.3845    0.2650   -0.0190 H   0  0  0  0  0  0  0  0  0  0  0  0
    2.2021    2.0457   -0.1904 H   0  0  0  0  0  0  0  0  0  0  0  0
    0.1270    3.3427    0.0221 H   0  0  0  0  0  0  0  0  0  0  0  0
   -2.0432    2.2100    0.2221 H   0  0  0  0  0  0  0  0  0  0  0  0
    2.6429   -1.0201   -1.2370 H   0  0  0  0  0  0  0  0  0  0  0  0
    2.5160   -1.5038    0.5065 H   0  0  0  0  0  0  0  0  0  0  0  0
    3.3846   -0.0049    0.0540 H   0  0  0  0  0  0  0  0  0  0  0  0
  1  2  1  0
  2  3  2  0
  3  4  1  0
  4  5  2  0
  5  6  1  0
  6  7  2  0
  4  8  1  0
  3  9  1  0
  9 10  1  0
  9 11  2  0
  7  2  1  0
  1 12  1  0
  1 13  1  0
  1 14  1  0
  5 15  1  0
  6 16  1  0
  7 17  1  0
  8 18  1  0
  8 19  1  0
  8 20  1  0
M  CHG  2   9   1  10  -1
M  END
