
     RDKit          3D

 18 18  0  0  0  0  0  0  0  0999 V2000
   -2.0898    0.0782   -1.2556 C   0  0  0  0  0  0  0  0  0  0  0  0
   -1.7306   -0.2352    0.1959 C   0  0  0  0  0  0  0  0  0  0  0  0
   -2.7134    0.9345    1.3982 Br  0  0  0  0  0  0  0  0  0  0  0  0
   -0.2418   -0.1145    0.4291 C   0  0  0  0  0  0  0  0  0  0  0  0
    0.4030    1.1344    0.3478 C   0  0  0  0  0  0  0  0  0  0  0  0
    1.7828    1.2324    0.5511 C   0  0  0  0  0  0  0  0  0  0  0  0
    2.5326    0.0879    0.8323 C   0  0  0  0  0  0  0  0  0  0  0  0
    1.9042   -1.1574    0.9087 C   0  0  0  0  0  0  0  0  0  0  0  0
    0.5245   -1.2610    0.7062 C   0  0  0  0  0  0  0  0  0  0  0  0
   -1.8400    1.1310   -1.5056 H   0  0  0  0  0  0  0  0  0  0  0  0
   -3.1782   -0.0750   -1.4145 H   0  0  0  0  0  0  0  0  0  0  0  0
   -1.5361   -0.5989   -1.9408 H   0  0  0  0  0  0  0  0  0  0  0  0
   -2.0704   -1.2705    0.4172 H   0  0  0  0  0  0  0  0  0  0  0  0
   -0.1617    2.0316    0.1276 H   0  0  0  0  0  0  0  0  0  0  0  0
    2.2711    2.1964    0.4893 H   0  0  0  0  0  0  0  0  0  0  0  0
    3.6007    0.1656    0.9888 H   0  0  0  0  0  0  0  0  0  0  0  0
    2.4869   -2.0440    1.1236 H   0  0  0  0  0  0  0  0  0  0  0  0
    0.0560   -2.2355    0.7652 H   0  0  0  0  0  0  0  0  0  0  0  0
  1  2  1  0
  2  3  1  0
  2  4  1  0
  4  5  2  0
  5  6  1  0
  6  7  2  0
  7  8  1  0
  8  9  2  0
  9  4  1  0
  1 10  1  0
  1 11  1  0
  1 12  1  0
  2 13  1  0
  5 14  1  0
  6 15  1  0
  7 16  1  0
  8 17  1  0
  9 18  1  0
M  END
