
     RDKit          3D

 24 23  0  0  0  0  0  0  0  0999 V2000
    4.6201   -0.6797    0.1391 C   0  0  0  0  0  0  0  0  0  0  0  0
    3.3290    0.0522    0.3168 C   0  0  0  0  0  0  0  0  0  0  0  0
    2.2985   -0.1659   -0.5054 C   0  0  0  0  0  0  0  0  0  0  0  0
    1.0118    0.5332   -0.3623 C   0  0  0  0  0  0  0  0  0  0  0  0
    0.8390    1.3827    0.5553 O   0  0  0  0  0  0  0  0  0  0  0  0
   -0.0161    0.2443   -1.2663 O   0  0  0  0  0  0  0  0  0  0  0  0
   -1.3214    0.8163   -1.1833 C   0  0  0  0  0  0  0  0  0  0  0  0
   -2.1392    0.1745   -0.0468 C   0  0  0  0  0  0  0  0  0  0  0  0
   -3.5077    0.8545    0.0739 C   0  0  0  0  0  0  0  0  0  0  0  0
   -2.3119   -1.3328   -0.2750 C   0  0  0  0  0  0  0  0  0  0  0  0
    4.4524   -1.7734    0.2340 H   0  0  0  0  0  0  0  0  0  0  0  0
    5.0480   -0.4567   -0.8612 H   0  0  0  0  0  0  0  0  0  0  0  0
    5.3434   -0.3591    0.9178 H   0  0  0  0  0  0  0  0  0  0  0  0
    3.2462    0.7648    1.1289 H   0  0  0  0  0  0  0  0  0  0  0  0
    2.4008   -0.8834   -1.3111 H   0  0  0  0  0  0  0  0  0  0  0  0
   -1.2387    1.9152   -1.0311 H   0  0  0  0  0  0  0  0  0  0  0  0
   -1.8393    0.6514   -2.1526 H   0  0  0  0  0  0  0  0  0  0  0  0
   -1.6000    0.3218    0.9142 H   0  0  0  0  0  0  0  0  0  0  0  0
   -4.0830    0.4121    0.9151 H   0  0  0  0  0  0  0  0  0  0  0  0
   -4.0913    0.7318   -0.8639 H   0  0  0  0  0  0  0  0  0  0  0  0
   -3.3796    1.9391    0.2777 H   0  0  0  0  0  0  0  0  0  0  0  0
   -1.3217   -1.8350   -0.3029 H   0  0  0  0  0  0  0  0  0  0  0  0
   -2.8985   -1.7810    0.5552 H   0  0  0  0  0  0  0  0  0  0  0  0
   -2.8408   -1.5268   -1.2329 H   0  0  0  0  0  0  0  0  0  0  0  0
  1  2  1  0
  2  3  2  0
  3  4  1  0
  4  5  2  0
  4  6  1  0
  6  7  1  0
  7  8  1  0
  8  9  1  0
  8 10  1  0
  1 11  1  0
  1 12  1  0
  1 13  1  0
  2 14  1  0
  3 15  1  0
  7 16  1  0
  7 17  1  0
  8 18  1  0
  9 19  1  0
  9 20  1  0
  9 21  1  0
 10 22  1  0
 10 23  1  0
 10 24  1  0
M  END
