
     RDKit          3D

 11 10  0  0  0  0  0  0  0  0999 V2000
    1.9369   -0.5483    0.7766 O   0  0  0  0  0  0  0  0  0  0  0  0
    1.2106   -0.0859   -0.3173 C   0  0  0  0  0  0  0  0  0  0  0  0
    1.6121   -0.3485   -1.4816 O   0  0  0  0  0  0  0  0  0  0  0  0
   -0.0587    0.6902   -0.1231 C   0  0  0  0  0  0  0  0  0  0  0  0
   -1.2884   -0.2056   -0.2696 C   0  0  0  0  0  0  0  0  0  0  0  0
   -1.4155   -1.4819    1.1879 Br  0  0  0  0  0  0  0  0  0  0  0  0
    1.6335   -0.3637    1.7252 H   0  0  0  0  0  0  0  0  0  0  0  0
   -0.0628    1.1721    0.8780 H   0  0  0  0  0  0  0  0  0  0  0  0
   -0.1073    1.4983   -0.8846 H   0  0  0  0  0  0  0  0  0  0  0  0
   -2.2023    0.4249   -0.2548 H   0  0  0  0  0  0  0  0  0  0  0  0
   -1.2580   -0.7517   -1.2368 H   0  0  0  0  0  0  0  0  0  0  0  0
  1  2  1  0
  2  3  2  0
  2  4  1  0
  4  5  1  0
  5  6  1  0
  1  7  1  0
  4  8  1  0
  4  9  1  0
  5 10  1  0
  5 11  1  0
M  END
