
     RDKit          3D

 15 15  0  0  0  0  0  0  0  0999 V2000
    2.4761   -0.1127   -0.5508 N   0  0  0  0  0  0  0  0  0  0  0  0
    1.0866    0.0522   -0.2556 C   0  0  0  0  0  0  0  0  0  0  0  0
    0.2984   -1.0602    0.0762 C   0  0  0  0  0  0  0  0  0  0  0  0
   -1.0619   -0.9007    0.3655 C   0  0  0  0  0  0  0  0  0  0  0  0
   -1.6378    0.3768    0.3232 C   0  0  0  0  0  0  0  0  0  0  0  0
   -0.8556    1.4872   -0.0070 C   0  0  0  0  0  0  0  0  0  0  0  0
    0.5030    1.3270   -0.2958 C   0  0  0  0  0  0  0  0  0  0  0  0
   -1.8306   -2.0153    0.6931 O   0  0  0  0  0  0  0  0  0  0  0  0
    2.9200   -1.0577   -0.5236 H   0  0  0  0  0  0  0  0  0  0  0  0
    3.0711    0.7091   -0.7988 H   0  0  0  0  0  0  0  0  0  0  0  0
    0.7399   -2.0485    0.1099 H   0  0  0  0  0  0  0  0  0  0  0  0
   -2.6890    0.5095    0.5454 H   0  0  0  0  0  0  0  0  0  0  0  0
   -1.3023    2.4726   -0.0390 H   0  0  0  0  0  0  0  0  0  0  0  0
    1.0998    2.1939   -0.5503 H   0  0  0  0  0  0  0  0  0  0  0  0
   -2.8176   -1.9333    0.9076 H   0  0  0  0  0  0  0  0  0  0  0  0
  1  2  1  0
  2  3  2  0
  3  4  1  0
  4  5  2  0
  5  6  1  0
  6  7  2  0
  4  8  1  0
  7  2  1  0
  1  9  1  0
  1 10  1  0
  3 11  1  0
  5 12  1  0
  6 13  1  0
  7 14  1  0
  8 15  1  0
M  END
