
     RDKit          3D

 12 12  0  0  0  0  0  0  0  0999 V2000
    3.4145    0.2475    0.0723 I   0  0  0  0  0  0  0  0  0  0  0  0
    1.3114    0.0951    0.0278 C   0  0  0  0  0  0  0  0  0  0  0  0
    0.7006   -1.1640   -0.0082 C   0  0  0  0  0  0  0  0  0  0  0  0
   -0.6943   -1.2647   -0.0377 C   0  0  0  0  0  0  0  0  0  0  0  0
   -1.4798   -0.1073   -0.0313 C   0  0  0  0  0  0  0  0  0  0  0  0
   -0.8704    1.1512    0.0046 C   0  0  0  0  0  0  0  0  0  0  0  0
    0.5245    1.2528    0.0342 C   0  0  0  0  0  0  0  0  0  0  0  0
    1.3048   -2.0620   -0.0133 H   0  0  0  0  0  0  0  0  0  0  0  0
   -1.1660   -2.2384   -0.0655 H   0  0  0  0  0  0  0  0  0  0  0  0
   -2.5590   -0.1855   -0.0542 H   0  0  0  0  0  0  0  0  0  0  0  0
   -1.4783    2.0467    0.0095 H   0  0  0  0  0  0  0  0  0  0  0  0
    0.9921    2.2285    0.0619 H   0  0  0  0  0  0  0  0  0  0  0  0
  1  2  1  0
  2  3  2  0
  3  4  1  0
  4  5  2  0
  5  6  1  0
  6  7  2  0
  7  2  1  0
  3  8  1  0
  4  9  1  0
  5 10  1  0
  6 11  1  0
  7 12  1  0
M  END
