
     RDKit          3D

 19 18  0  0  0  0  0  0  0  0999 V2000
   -2.5065   -0.8072    0.4171 C   0  0  0  0  0  0  0  0  0  0  0  0
   -1.0326   -0.6933    0.0396 C   0  0  0  0  0  0  0  0  0  0  0  0
   -0.7983    0.4723   -0.9321 C   0  0  0  0  0  0  0  0  0  0  0  0
    0.6691    0.5713   -1.3705 C   0  0  0  0  0  0  0  0  0  0  0  0
    1.5699    0.9728   -0.2302 C   0  0  0  0  0  0  0  0  0  0  0  0
    2.6000    0.0311    0.3193 C   0  0  0  0  0  0  0  0  0  0  0  0
    1.4669    2.0900    0.2535 O   0  0  0  0  0  0  0  0  0  0  0  0
   -3.1237   -0.9928   -0.4877 H   0  0  0  0  0  0  0  0  0  0  0  0
   -2.8511    0.1260    0.9116 H   0  0  0  0  0  0  0  0  0  0  0  0
   -2.6456   -1.6544    1.1213 H   0  0  0  0  0  0  0  0  0  0  0  0
   -0.7075   -1.6463   -0.4319 H   0  0  0  0  0  0  0  0  0  0  0  0
   -0.4391   -0.5394    0.9666 H   0  0  0  0  0  0  0  0  0  0  0  0
   -1.1153    1.4289   -0.4610 H   0  0  0  0  0  0  0  0  0  0  0  0
   -1.4226    0.3185   -1.8395 H   0  0  0  0  0  0  0  0  0  0  0  0
    0.9910   -0.3982   -1.8087 H   0  0  0  0  0  0  0  0  0  0  0  0
    0.7552    1.3354   -2.1729 H   0  0  0  0  0  0  0  0  0  0  0  0
    3.6110    0.4719    0.1938 H   0  0  0  0  0  0  0  0  0  0  0  0
    2.5709   -0.9492   -0.2006 H   0  0  0  0  0  0  0  0  0  0  0  0
    2.4085   -0.1373    1.3997 H   0  0  0  0  0  0  0  0  0  0  0  0
  1  2  1  0
  2  3  1  0
  3  4  1  0
  4  5  1  0
  5  6  1  0
  5  7  2  0
  1  8  1  0
  1  9  1  0
  1 10  1  0
  2 11  1  0
  2 12  1  0
  3 13  1  0
  3 14  1  0
  4 15  1  0
  4 16  1  0
  6 17  1  0
  6 18  1  0
  6 19  1  0
M  END
