
     RDKit          3D

 30 30  0  0  0  0  0  0  0  0999 V2000
   -1.8617   -2.9707   -0.0005 C   0  0  0  0  0  0  0  0  0  0  0  0
   -1.9601   -1.9522    1.1288 C   0  0  0  0  0  0  0  0  0  0  0  0
   -1.3250   -0.7299    0.7601 O   0  0  0  0  0  0  0  0  0  0  0  0
   -1.8927    0.2043   -0.1158 C   0  0  0  0  0  0  0  0  0  0  0  0
   -3.0636    0.0343   -0.5546 O   0  0  0  0  0  0  0  0  0  0  0  0
   -1.1408    1.4273   -0.4793 C   0  0  0  0  0  0  0  0  0  0  0  0
   -1.8536    2.6297   -0.6421 C   0  0  0  0  0  0  0  0  0  0  0  0
   -1.1814    3.8312   -0.8710 C   0  0  0  0  0  0  0  0  0  0  0  0
    0.2103    3.8518   -0.9382 C   0  0  0  0  0  0  0  0  0  0  0  0
    0.9350    2.6672   -0.8010 C   0  0  0  0  0  0  0  0  0  0  0  0
    0.2756    1.4430   -0.5948 C   0  0  0  0  0  0  0  0  0  0  0  0
    1.0899    0.2099   -0.5705 C   0  0  0  0  0  0  0  0  0  0  0  0
    0.6669   -0.8383   -1.1310 O   0  0  0  0  0  0  0  0  0  0  0  0
    2.3522    0.2276    0.0345 O   0  0  0  0  0  0  0  0  0  0  0  0
    3.1681   -0.9334    0.1770 C   0  0  0  0  0  0  0  0  0  0  0  0
    2.6172   -1.8473    1.2663 C   0  0  0  0  0  0  0  0  0  0  0  0
   -2.3857   -2.5977   -0.9051 H   0  0  0  0  0  0  0  0  0  0  0  0
   -0.7958   -3.1595   -0.2483 H   0  0  0  0  0  0  0  0  0  0  0  0
   -2.3312   -3.9256    0.3162 H   0  0  0  0  0  0  0  0  0  0  0  0
   -1.4452   -2.3617    2.0233 H   0  0  0  0  0  0  0  0  0  0  0  0
   -3.0241   -1.7717    1.3955 H   0  0  0  0  0  0  0  0  0  0  0  0
   -2.9337    2.6455   -0.5593 H   0  0  0  0  0  0  0  0  0  0  0  0
   -1.7411    4.7510   -0.9827 H   0  0  0  0  0  0  0  0  0  0  0  0
    0.7290    4.7862   -1.1094 H   0  0  0  0  0  0  0  0  0  0  0  0
    2.0143    2.7027   -0.8883 H   0  0  0  0  0  0  0  0  0  0  0  0
    3.2348   -1.4805   -0.7885 H   0  0  0  0  0  0  0  0  0  0  0  0
    4.1920   -0.6131    0.4633 H   0  0  0  0  0  0  0  0  0  0  0  0
    1.6102   -2.2218    0.9869 H   0  0  0  0  0  0  0  0  0  0  0  0
    3.2949   -2.7161    1.4027 H   0  0  0  0  0  0  0  0  0  0  0  0
    2.5453   -1.2923    2.2255 H   0  0  0  0  0  0  0  0  0  0  0  0
  1  2  1  0
  2  3  1  0
  3  4  1  0
  4  5  2  0
  4  6  1  0
  6  7  2  0
  7  8  1  0
  8  9  2  0
  9 10  1  0
 10 11  2  0
 11 12  1  0
 12 13  2  0
 12 14  1  0
 14 15  1  0
 15 16  1  0
 11  6  1  0
  1 17  1  0
  1 18  1  0
  1 19  1  0
  2 20  1  0
  2 21  1  0
  7 22  1  0
  8 23  1  0
  9 24  1  0
 10 25  1  0
 15 26  1  0
 15 27  1  0
 16 28  1  0
 16 29  1  0
 16 30  1  0
M  END
