
     RDKit          3D

 20 19  0  0  0  0  0  0  0  0999 V2000
    3.0757    0.0784    0.4724 C   0  0  0  0  0  0  0  0  0  0  0  0
    1.6804    0.3399    0.5613 O   0  0  0  0  0  0  0  0  0  0  0  0
    0.7295   -0.3715   -0.1805 C   0  0  0  0  0  0  0  0  0  0  0  0
    1.1027   -1.2701   -0.9855 O   0  0  0  0  0  0  0  0  0  0  0  0
   -0.7446   -0.0350   -0.0607 C   0  0  0  0  0  0  0  0  0  0  0  0
   -0.9949    0.8843    1.1524 C   0  0  0  0  0  0  0  0  0  0  0  0
   -1.5592   -1.3311    0.1205 C   0  0  0  0  0  0  0  0  0  0  0  0
   -1.1984    0.6846   -1.3433 C   0  0  0  0  0  0  0  0  0  0  0  0
    3.6192    0.7655    1.1528 H   0  0  0  0  0  0  0  0  0  0  0  0
    3.2861   -0.9692    0.7751 H   0  0  0  0  0  0  0  0  0  0  0  0
    3.4286    0.2474   -0.5670 H   0  0  0  0  0  0  0  0  0  0  0  0
   -0.6555    0.3942    2.0907 H   0  0  0  0  0  0  0  0  0  0  0  0
   -2.0775    1.1158    1.2528 H   0  0  0  0  0  0  0  0  0  0  0  0
   -0.4479    1.8455    1.0391 H   0  0  0  0  0  0  0  0  0  0  0  0
   -1.4385   -2.0022   -0.7573 H   0  0  0  0  0  0  0  0  0  0  0  0
   -1.2230   -1.8782    1.0281 H   0  0  0  0  0  0  0  0  0  0  0  0
   -2.6414   -1.1022    0.2306 H   0  0  0  0  0  0  0  0  0  0  0  0
   -1.0494    0.0348   -2.2329 H   0  0  0  0  0  0  0  0  0  0  0  0
   -0.6156    1.6194   -1.4931 H   0  0  0  0  0  0  0  0  0  0  0  0
   -2.2762    0.9498   -1.2838 H   0  0  0  0  0  0  0  0  0  0  0  0
  1  2  1  0
  2  3  1  0
  3  4  2  0
  3  5  1  0
  5  6  1  0
  5  7  1  0
  5  8  1  0
  1  9  1  0
  1 10  1  0
  1 11  1  0
  6 12  1  0
  6 13  1  0
  6 14  1  0
  7 15  1  0
  7 16  1  0
  7 17  1  0
  8 18  1  0
  8 19  1  0
  8 20  1  0
M  END
