
     RDKit          3D

 20 20  0  0  0  0  0  0  0  0999 V2000
    0.8045   -2.0707   -0.1264 C   0  0  0  0  0  0  0  0  0  0  0  0
    0.5444   -0.5863   -0.0106 C   0  0  0  0  0  0  0  0  0  0  0  0
   -0.7815   -0.0662   -0.0428 C   0  0  0  0  0  0  0  0  0  0  0  0
   -1.9879   -0.9712   -0.1629 C   0  0  0  0  0  0  0  0  0  0  0  0
   -0.9747    1.3369    0.0158 C   0  0  0  0  0  0  0  0  0  0  0  0
    0.1207    2.1881    0.1649 C   0  0  0  0  0  0  0  0  0  0  0  0
    1.4113    1.6762    0.2391 C   0  0  0  0  0  0  0  0  0  0  0  0
    1.6333    0.2993    0.1497 C   0  0  0  0  0  0  0  0  0  0  0  0
    2.9392   -0.1879    0.2206 O   0  0  0  0  0  0  0  0  0  0  0  0
   -2.2415    1.9201   -0.0766 O   0  0  0  0  0  0  0  0  0  0  0  0
    0.4310   -2.5877    0.7823 H   0  0  0  0  0  0  0  0  0  0  0  0
    1.8820   -2.3094   -0.2360 H   0  0  0  0  0  0  0  0  0  0  0  0
    0.2943   -2.4762   -1.0255 H   0  0  0  0  0  0  0  0  0  0  0  0
   -2.7401   -0.7034    0.6084 H   0  0  0  0  0  0  0  0  0  0  0  0
   -2.4371   -0.8591   -1.1719 H   0  0  0  0  0  0  0  0  0  0  0  0
   -1.7566   -2.0412   -0.0013 H   0  0  0  0  0  0  0  0  0  0  0  0
   -0.0313    3.2589    0.2200 H   0  0  0  0  0  0  0  0  0  0  0  0
    2.2457    2.3558    0.3584 H   0  0  0  0  0  0  0  0  0  0  0  0
    3.7337    0.4307    0.3354 H   0  0  0  0  0  0  0  0  0  0  0  0
   -3.0893    1.3933   -0.2405 H   0  0  0  0  0  0  0  0  0  0  0  0
  1  2  1  0
  2  3  2  0
  3  4  1  0
  3  5  1  0
  5  6  2  0
  6  7  1  0
  7  8  2  0
  8  9  1  0
  5 10  1  0
  8  2  1  0
  1 11  1  0
  1 12  1  0
  1 13  1  0
  4 14  1  0
  4 15  1  0
  4 16  1  0
  6 17  1  0
  7 18  1  0
  9 19  1  0
 10 20  1  0
M  END
