
     RDKit          3D

 20 19  0  0  0  0  0  0  0  0999 V2000
    2.1161   -1.6479   -0.1982 C   0  0  0  0  0  0  0  0  0  0  0  0
    2.3792   -0.2319    0.3007 C   0  0  0  0  0  0  0  0  0  0  0  0
    1.1908    0.5528    0.2318 O   0  0  0  0  0  0  0  0  0  0  0  0
    0.1350    0.4351    1.1444 C   0  0  0  0  0  0  0  0  0  0  0  0
    0.2215   -0.3510    2.1272 O   0  0  0  0  0  0  0  0  0  0  0  0
   -1.1312    1.2133    0.9300 C   0  0  0  0  0  0  0  0  0  0  0  0
   -0.7295    2.9760    0.1964 Br  0  0  0  0  0  0  0  0  0  0  0  0
   -2.1413    0.4209    0.0719 C   0  0  0  0  0  0  0  0  0  0  0  0
   -1.6710    0.1792   -1.3663 C   0  0  0  0  0  0  0  0  0  0  0  0
   -3.8644    1.3227    0.0475 Br  0  0  0  0  0  0  0  0  0  0  0  0
    1.7292   -1.6169   -1.2387 H   0  0  0  0  0  0  0  0  0  0  0  0
    3.0608   -2.2309   -0.1825 H   0  0  0  0  0  0  0  0  0  0  0  0
    1.3726   -2.1556    0.4511 H   0  0  0  0  0  0  0  0  0  0  0  0
    3.1501    0.2366   -0.3467 H   0  0  0  0  0  0  0  0  0  0  0  0
    2.7697   -0.2545    1.3413 H   0  0  0  0  0  0  0  0  0  0  0  0
   -1.5937    1.3930    1.9251 H   0  0  0  0  0  0  0  0  0  0  0  0
   -2.3125   -0.5686    0.5503 H   0  0  0  0  0  0  0  0  0  0  0  0
   -0.7255   -0.4014   -1.3777 H   0  0  0  0  0  0  0  0  0  0  0  0
   -2.4370   -0.4093   -1.9140 H   0  0  0  0  0  0  0  0  0  0  0  0
   -1.5189    1.1385   -1.9029 H   0  0  0  0  0  0  0  0  0  0  0  0
  1  2  1  0
  2  3  1  0
  3  4  1  0
  4  5  2  0
  4  6  1  0
  6  7  1  0
  6  8  1  0
  8  9  1  0
  8 10  1  0
  1 11  1  0
  1 12  1  0
  1 13  1  0
  2 14  1  0
  2 15  1  0
  6 16  1  0
  8 17  1  0
  9 18  1  0
  9 19  1  0
  9 20  1  0
M  END
