
     RDKit          3D

 19 19  0  0  0  0  0  0  0  0999 V2000
    2.9231    0.2799    0.2470 C   0  0  0  0  0  0  0  0  0  0  0  0
    1.4642   -0.0294    0.0831 C   0  0  0  0  0  0  0  0  0  0  0  0
    1.0612   -1.2448   -0.4817 C   0  0  0  0  0  0  0  0  0  0  0  0
   -0.2944   -1.5220   -0.6616 C   0  0  0  0  0  0  0  0  0  0  0  0
   -1.2746   -0.5844   -0.2935 C   0  0  0  0  0  0  0  0  0  0  0  0
   -0.8707    0.6717    0.2249 C   0  0  0  0  0  0  0  0  0  0  0  0
    0.4978    0.9285    0.4185 C   0  0  0  0  0  0  0  0  0  0  0  0
   -1.8222    1.7127    0.5031 N   0  0  0  0  0  4  0  0  0  0  0  0
   -1.5581    2.6439    1.4810 O   0  0  0  0  0  1  0  0  0  0  0  0
   -2.7931    1.8991   -0.2592 O   0  0  0  0  0  0  0  0  0  0  0  0
   -2.6634   -0.9398   -0.3998 N   0  0  0  0  0  4  0  0  0  0  0  0
   -3.5455   -0.5876    0.5958 O   0  0  0  0  0  1  0  0  0  0  0  0
   -3.0441   -1.7267   -1.2911 O   0  0  0  0  0  0  0  0  0  0  0  0
    3.0850    0.9548    1.1144 H   0  0  0  0  0  0  0  0  0  0  0  0
    3.3013    0.7740   -0.6722 H   0  0  0  0  0  0  0  0  0  0  0  0
    3.5043   -0.6503    0.4237 H   0  0  0  0  0  0  0  0  0  0  0  0
    1.7967   -1.9850   -0.7720 H   0  0  0  0  0  0  0  0  0  0  0  0
   -0.5821   -2.4844   -1.0658 H   0  0  0  0  0  0  0  0  0  0  0  0
    0.8145    1.8896    0.8054 H   0  0  0  0  0  0  0  0  0  0  0  0
  1  2  1  0
  2  3  2  0
  3  4  1  0
  4  5  2  0
  5  6  1  0
  6  7  2  0
  6  8  1  0
  8  9  1  0
  8 10  2  0
  5 11  1  0
 11 12  1  0
 11 13  2  0
  7  2  1  0
  1 14  1  0
  1 15  1  0
  1 16  1  0
  3 17  1  0
  4 18  1  0
  7 19  1  0
M  CHG  4   8   1   9  -1  11   1  12  -1
M  END
