
     RDKit          3D

 19 20  0  0  0  0  0  0  0  0999 V2000
    1.7185    3.6094    0.0729 N   0  0  0  0  0  0  0  0  0  0  0  0
    1.5283    2.4685    0.0350 C   0  0  0  0  0  0  0  0  0  0  0  0
    1.2918    1.0439   -0.0124 C   0  0  0  0  0  0  0  0  0  0  0  0
   -0.0152    0.4992    0.0207 C   0  0  0  0  0  0  0  0  0  0  0  0
   -1.1630    1.3159    0.1020 C   0  0  0  0  0  0  0  0  0  0  0  0
   -2.4379    0.7450    0.1327 C   0  0  0  0  0  0  0  0  0  0  0  0
   -2.5901   -0.6411    0.0833 C   0  0  0  0  0  0  0  0  0  0  0  0
   -1.4682   -1.4679    0.0028 C   0  0  0  0  0  0  0  0  0  0  0  0
   -0.1799   -0.9111   -0.0291 C   0  0  0  0  0  0  0  0  0  0  0  0
    0.9451   -1.7445   -0.1100 C   0  0  0  0  0  0  0  0  0  0  0  0
    2.2264   -1.1942   -0.1418 C   0  0  0  0  0  0  0  0  0  0  0  0
    2.3998    0.1895   -0.0934 C   0  0  0  0  0  0  0  0  0  0  0  0
   -1.0835    2.3947    0.1420 H   0  0  0  0  0  0  0  0  0  0  0  0
   -3.3119    1.3805    0.1951 H   0  0  0  0  0  0  0  0  0  0  0  0
   -3.5808   -1.0763    0.1075 H   0  0  0  0  0  0  0  0  0  0  0  0
   -1.6072   -2.5419   -0.0346 H   0  0  0  0  0  0  0  0  0  0  0  0
    0.8334   -2.8217   -0.1487 H   0  0  0  0  0  0  0  0  0  0  0  0
    3.0902   -1.8436   -0.2044 H   0  0  0  0  0  0  0  0  0  0  0  0
    3.4042    0.5957   -0.1194 H   0  0  0  0  0  0  0  0  0  0  0  0
  1  2  3  0
  2  3  1  0
  3  4  2  0
  4  5  1  0
  5  6  2  0
  6  7  1  0
  7  8  2  0
  8  9  1  0
  9 10  2  0
 10 11  1  0
 11 12  2  0
 12  3  1  0
  9  4  1  0
  5 13  1  0
  6 14  1  0
  7 15  1  0
  8 16  1  0
 10 17  1  0
 11 18  1  0
 12 19  1  0
M  END
