
     RDKit          3D

 14 14  0  0  0  0  0  0  0  0999 V2000
    3.0564   -1.1666    0.0221 O   0  0  0  0  0  1  0  0  0  0  0  0
    2.3448   -0.0214   -0.2533 N   0  0  0  0  0  4  0  0  0  0  0  0
    2.9442    0.9458   -0.7656 O   0  0  0  0  0  0  0  0  0  0  0  0
    0.9133   -0.0064   -0.0958 C   0  0  0  0  0  0  0  0  0  0  0  0
    0.2056   -1.2217   -0.1378 C   0  0  0  0  0  0  0  0  0  0  0  0
   -1.1842   -1.2439   -0.0015 C   0  0  0  0  0  0  0  0  0  0  0  0
   -1.8886   -0.0538    0.1857 C   0  0  0  0  0  0  0  0  0  0  0  0
   -3.6341   -0.0846    0.3583 Cl  0  0  0  0  0  0  0  0  0  0  0  0
   -1.2013    1.1608    0.2438 C   0  0  0  0  0  0  0  0  0  0  0  0
    0.1927    1.1964    0.1084 C   0  0  0  0  0  0  0  0  0  0  0  0
    0.9864    2.7602    0.2675 Cl  0  0  0  0  0  0  0  0  0  0  0  0
    0.7287   -2.1568   -0.2921 H   0  0  0  0  0  0  0  0  0  0  0  0
   -1.7125   -2.1879   -0.0438 H   0  0  0  0  0  0  0  0  0  0  0  0
   -1.7515    2.0798    0.4042 H   0  0  0  0  0  0  0  0  0  0  0  0
  1  2  1  0
  2  3  2  0
  2  4  1  0
  4  5  2  0
  5  6  1  0
  6  7  2  0
  7  8  1  0
  7  9  1  0
  9 10  2  0
 10 11  1  0
 10  4  1  0
  5 12  1  0
  6 13  1  0
  9 14  1  0
M  CHG  2   1  -1   2   1
M  END
