
     RDKit          3D

 18 18  0  0  0  0  0  0  0  0999 V2000
    2.5555    0.0644    0.8123 O   0  0  0  0  0  0  0  0  0  0  0  0
    1.9271   -0.5185   -0.2972 C   0  0  0  0  0  0  0  0  0  0  0  0
    0.4256   -0.3725   -0.1975 C   0  0  0  0  0  0  0  0  0  0  0  0
   -0.2043    0.8897   -0.0217 C   0  0  0  0  0  0  0  0  0  0  0  0
   -1.6024    0.9411    0.1317 C   0  0  0  0  0  0  0  0  0  0  0  0
   -2.3694   -0.2236    0.0870 C   0  0  0  0  0  0  0  0  0  0  0  0
   -1.7535   -1.4582   -0.1047 C   0  0  0  0  0  0  0  0  0  0  0  0
   -0.3672   -1.5345   -0.2437 C   0  0  0  0  0  0  0  0  0  0  0  0
    0.5477    2.1166    0.0191 N   0  0  0  0  0  4  0  0  0  0  0  0
    1.6066    2.3211   -0.8343 O   0  0  0  0  0  1  0  0  0  0  0  0
    0.1460    3.0731    0.7138 O   0  0  0  0  0  0  0  0  0  0  0  0
    2.3813   -0.5362    1.5837 H   0  0  0  0  0  0  0  0  0  0  0  0
    2.2878   -0.0300   -1.2251 H   0  0  0  0  0  0  0  0  0  0  0  0
    2.2296   -1.5878   -0.3745 H   0  0  0  0  0  0  0  0  0  0  0  0
   -2.1033    1.8909    0.2707 H   0  0  0  0  0  0  0  0  0  0  0  0
   -3.4446   -0.1677    0.1985 H   0  0  0  0  0  0  0  0  0  0  0  0
   -2.3509   -2.3601   -0.1396 H   0  0  0  0  0  0  0  0  0  0  0  0
    0.0884   -2.5078   -0.3785 H   0  0  0  0  0  0  0  0  0  0  0  0
  1  2  1  0
  2  3  1  0
  3  4  2  0
  4  5  1  0
  5  6  2  0
  6  7  1  0
  7  8  2  0
  4  9  1  0
  9 10  1  0
  9 11  2  0
  8  3  1  0
  1 12  1  0
  2 13  1  0
  2 14  1  0
  5 15  1  0
  6 16  1  0
  7 17  1  0
  8 18  1  0
M  CHG  2   9   1  10  -1
M  END
