
     RDKit          3D

 14 14  0  0  0  0  0  0  0  0999 V2000
    2.3052   -0.0062   -0.0718 N   0  0  0  0  0  0  0  0  0  0  0  0
    0.8735   -0.0243   -0.0185 C   0  0  0  0  0  0  0  0  0  0  0  0
    0.1052    1.0862   -0.4325 C   0  0  0  0  0  0  0  0  0  0  0  0
    0.9739    2.8755   -1.1673 I   0  0  0  0  0  0  0  0  0  0  0  0
   -1.2929    1.0274   -0.3643 C   0  0  0  0  0  0  0  0  0  0  0  0
   -1.9304   -0.1212    0.1100 C   0  0  0  0  0  0  0  0  0  0  0  0
   -1.1746   -1.2205    0.5199 C   0  0  0  0  0  0  0  0  0  0  0  0
    0.2203   -1.1732    0.4564 C   0  0  0  0  0  0  0  0  0  0  0  0
    2.8377    0.8213   -0.4158 H   0  0  0  0  0  0  0  0  0  0  0  0
    2.8568   -0.8370    0.2387 H   0  0  0  0  0  0  0  0  0  0  0  0
   -1.8881    1.8747   -0.6798 H   0  0  0  0  0  0  0  0  0  0  0  0
   -3.0109   -0.1589    0.1597 H   0  0  0  0  0  0  0  0  0  0  0  0
   -1.6695   -2.1101    0.8873 H   0  0  0  0  0  0  0  0  0  0  0  0
    0.7938   -2.0336    0.7778 H   0  0  0  0  0  0  0  0  0  0  0  0
  1  2  1  0
  2  3  2  0
  3  4  1  0
  3  5  1  0
  5  6  2  0
  6  7  1  0
  7  8  2  0
  8  2  1  0
  1  9  1  0
  1 10  1  0
  5 11  1  0
  6 12  1  0
  7 13  1  0
  8 14  1  0
M  END
