
     RDKit          3D

 13 13  0  0  0  0  0  0  0  0999 V2000
   -2.3675    0.9028   -0.3531 O   0  0  0  0  0  0  0  0  0  0  0  0
   -1.0603    0.4493   -0.1741 C   0  0  0  0  0  0  0  0  0  0  0  0
   -0.0028    1.3190   -0.4678 C   0  0  0  0  0  0  0  0  0  0  0  0
    1.3213    0.9042   -0.3023 C   0  0  0  0  0  0  0  0  0  0  0  0
    1.5981   -0.3856    0.1590 C   0  0  0  0  0  0  0  0  0  0  0  0
    3.4080   -0.9519    0.3850 Br  0  0  0  0  0  0  0  0  0  0  0  0
    0.5485   -1.2611    0.4549 C   0  0  0  0  0  0  0  0  0  0  0  0
   -0.7812   -0.8523    0.2914 C   0  0  0  0  0  0  0  0  0  0  0  0
   -2.1740   -2.0985    0.7140 Br  0  0  0  0  0  0  0  0  0  0  0  0
   -3.1781    0.3286   -0.1607 H   0  0  0  0  0  0  0  0  0  0  0  0
   -0.2090    2.3198   -0.8257 H   0  0  0  0  0  0  0  0  0  0  0  0
    2.1305    1.5853   -0.5326 H   0  0  0  0  0  0  0  0  0  0  0  0
    0.7664   -2.2596    0.8120 H   0  0  0  0  0  0  0  0  0  0  0  0
  1  2  1  0
  2  3  2  0
  3  4  1  0
  4  5  2  0
  5  6  1  0
  5  7  1  0
  7  8  2  0
  8  9  1  0
  8  2  1  0
  1 10  1  0
  3 11  1  0
  4 12  1  0
  7 13  1  0
M  END
