
     RDKit          3D

 16 16  0  0  0  0  0  0  0  0999 V2000
    2.3632    0.3017   -0.0892 C   0  0  0  0  0  0  0  0  0  0  0  0
    0.8991   -0.0239   -0.0728 C   0  0  0  0  0  0  0  0  0  0  0  0
   -0.0202    0.8804    0.4818 C   0  0  0  0  0  0  0  0  0  0  0  0
   -1.3936    0.5956    0.4653 C   0  0  0  0  0  0  0  0  0  0  0  0
   -1.8506   -0.5942   -0.1198 C   0  0  0  0  0  0  0  0  0  0  0  0
   -3.5658   -0.9723   -0.1529 Cl  0  0  0  0  0  0  0  0  0  0  0  0
   -0.9375   -1.4882   -0.6892 C   0  0  0  0  0  0  0  0  0  0  0  0
    0.4305   -1.2027   -0.6723 C   0  0  0  0  0  0  0  0  0  0  0  0
   -2.3043    1.4904    1.0251 O   0  0  0  0  0  0  0  0  0  0  0  0
    2.6389    0.9108    0.7979 H   0  0  0  0  0  0  0  0  0  0  0  0
    2.9719   -0.6274   -0.0697 H   0  0  0  0  0  0  0  0  0  0  0  0
    2.6039    0.8730   -1.0099 H   0  0  0  0  0  0  0  0  0  0  0  0
    0.3296    1.8043    0.9265 H   0  0  0  0  0  0  0  0  0  0  0  0
   -1.2875   -2.4039   -1.1487 H   0  0  0  0  0  0  0  0  0  0  0  0
    1.1236   -1.9006   -1.1256 H   0  0  0  0  0  0  0  0  0  0  0  0
   -2.0012    2.3572    1.4535 H   0  0  0  0  0  0  0  0  0  0  0  0
  1  2  1  0
  2  3  2  0
  3  4  1  0
  4  5  2  0
  5  6  1  0
  5  7  1  0
  7  8  2  0
  4  9  1  0
  8  2  1  0
  1 10  1  0
  1 11  1  0
  1 12  1  0
  3 13  1  0
  7 14  1  0
  8 15  1  0
  9 16  1  0
M  END
