
     RDKit          3D

 19 18  0  0  0  0  0  0  0  0999 V2000
   -1.9394   -1.2116    0.0525 C   0  0  0  0  0  0  0  0  0  0  0  0
   -0.6537   -0.7412   -0.6213 C   0  0  0  0  0  0  0  0  0  0  0  0
   -0.0947    0.4296    0.0940 N   0  0  0  0  0  0  0  0  0  0  0  0
   -0.6706    1.6802   -0.4328 C   0  0  0  0  0  0  0  0  0  0  0  0
    1.3807    0.4700   -0.0067 C   0  0  0  0  0  0  0  0  0  0  0  0
    2.0133   -0.3896    1.0852 C   0  0  0  0  0  0  0  0  0  0  0  0
   -1.7477   -1.4322    1.1242 H   0  0  0  0  0  0  0  0  0  0  0  0
   -2.7322   -0.4397   -0.0251 H   0  0  0  0  0  0  0  0  0  0  0  0
   -2.3025   -2.1369   -0.4427 H   0  0  0  0  0  0  0  0  0  0  0  0
   -0.8520   -0.5124   -1.6933 H   0  0  0  0  0  0  0  0  0  0  0  0
    0.0522   -1.6003   -0.6045 H   0  0  0  0  0  0  0  0  0  0  0  0
   -0.3440    2.5407    0.1899 H   0  0  0  0  0  0  0  0  0  0  0  0
   -1.7793    1.6540   -0.3863 H   0  0  0  0  0  0  0  0  0  0  0  0
   -0.3562    1.8545   -1.4862 H   0  0  0  0  0  0  0  0  0  0  0  0
    1.7631    1.5058    0.1408 H   0  0  0  0  0  0  0  0  0  0  0  0
    1.7289    0.1318   -1.0093 H   0  0  0  0  0  0  0  0  0  0  0  0
    1.6698   -0.0468    2.0843 H   0  0  0  0  0  0  0  0  0  0  0  0
    3.1190   -0.2976    1.0375 H   0  0  0  0  0  0  0  0  0  0  0  0
    1.7454   -1.4584    0.9573 H   0  0  0  0  0  0  0  0  0  0  0  0
  1  2  1  0
  2  3  1  0
  3  4  1  0
  3  5  1  0
  5  6  1  0
  1  7  1  0
  1  8  1  0
  1  9  1  0
  2 10  1  0
  2 11  1  0
  4 12  1  0
  4 13  1  0
  4 14  1  0
  5 15  1  0
  5 16  1  0
  6 17  1  0
  6 18  1  0
  6 19  1  0
M  END
