
     RDKit          3D

 22 22  0  0  0  0  0  0  0  0999 V2000
   -1.8005    1.0832   -0.9587 C   0  0  0  0  0  0  0  0  0  0  0  0
   -1.3200   -0.1739   -0.2208 C   0  0  0  0  0  0  0  0  0  0  0  0
   -1.9528   -0.2144    1.1889 C   0  0  0  0  0  0  0  0  0  0  0  0
   -1.7765   -1.2934   -0.9456 O   0  0  0  0  0  0  0  0  0  0  0  0
    0.2123   -0.1544   -0.1549 C   0  0  0  0  0  0  0  0  0  0  0  0
    0.8871    0.7076    0.7370 C   0  0  0  0  0  0  0  0  0  0  0  0
    2.2839    0.7540    0.7668 C   0  0  0  0  0  0  0  0  0  0  0  0
    3.0307   -0.0396   -0.1042 C   0  0  0  0  0  0  0  0  0  0  0  0
    2.3822   -0.8730   -1.0158 C   0  0  0  0  0  0  0  0  0  0  0  0
    0.9856   -0.9244   -1.0514 C   0  0  0  0  0  0  0  0  0  0  0  0
   -1.4884    2.0044   -0.4207 H   0  0  0  0  0  0  0  0  0  0  0  0
   -1.3748    1.1121   -1.9850 H   0  0  0  0  0  0  0  0  0  0  0  0
   -2.9087    1.0819   -1.0424 H   0  0  0  0  0  0  0  0  0  0  0  0
   -1.5024   -1.0321    1.7917 H   0  0  0  0  0  0  0  0  0  0  0  0
   -1.8183    0.7448    1.7309 H   0  0  0  0  0  0  0  0  0  0  0  0
   -3.0450   -0.4034    1.1093 H   0  0  0  0  0  0  0  0  0  0  0  0
   -1.5128   -2.1097   -0.4435 H   0  0  0  0  0  0  0  0  0  0  0  0
    0.3397    1.3567    1.4060 H   0  0  0  0  0  0  0  0  0  0  0  0
    2.7878    1.4137    1.4614 H   0  0  0  0  0  0  0  0  0  0  0  0
    4.1120    0.0003   -0.0809 H   0  0  0  0  0  0  0  0  0  0  0  0
    2.9625   -1.4758   -1.7025 H   0  0  0  0  0  0  0  0  0  0  0  0
    0.5165   -1.5645   -1.7868 H   0  0  0  0  0  0  0  0  0  0  0  0
  1  2  1  0
  2  3  1  0
  2  4  1  0
  2  5  1  0
  5  6  2  0
  6  7  1  0
  7  8  2  0
  8  9  1  0
  9 10  2  0
 10  5  1  0
  1 11  1  0
  1 12  1  0
  1 13  1  0
  3 14  1  0
  3 15  1  0
  3 16  1  0
  4 17  1  0
  6 18  1  0
  7 19  1  0
  8 20  1  0
  9 21  1  0
 10 22  1  0
M  END
