
     RDKit          3D

 15 15  0  0  0  0  0  0  0  0999 V2000
    3.2475   -1.2586    0.4220 O   0  0  0  0  0  1  0  0  0  0  0  0
    2.4275   -0.1767    0.6479 N   0  0  0  0  0  4  0  0  0  0  0  0
    2.8994    0.8252    1.2246 O   0  0  0  0  0  0  0  0  0  0  0  0
    1.0514   -0.2013    0.2263 C   0  0  0  0  0  0  0  0  0  0  0  0
    0.2090    0.9040    0.4557 C   0  0  0  0  0  0  0  0  0  0  0  0
   -1.1299    0.8741    0.0430 C   0  0  0  0  0  0  0  0  0  0  0  0
   -1.6368   -0.2599   -0.6017 C   0  0  0  0  0  0  0  0  0  0  0  0
   -0.8088   -1.3603   -0.8333 C   0  0  0  0  0  0  0  0  0  0  0  0
    0.5271   -1.3338   -0.4229 C   0  0  0  0  0  0  0  0  0  0  0  0
   -1.9838    2.0084    0.2815 C   0  0  0  0  0  0  0  0  0  0  0  0
   -2.6702    2.9202    0.4733 N   0  0  0  0  0  0  0  0  0  0  0  0
    0.5920    1.7866    0.9541 H   0  0  0  0  0  0  0  0  0  0  0  0
   -2.6705   -0.2930   -0.9247 H   0  0  0  0  0  0  0  0  0  0  0  0
   -1.2029   -2.2363   -1.3321 H   0  0  0  0  0  0  0  0  0  0  0  0
    1.1490   -2.1988   -0.6136 H   0  0  0  0  0  0  0  0  0  0  0  0
  1  2  1  0
  2  3  2  0
  2  4  1  0
  4  5  2  0
  5  6  1  0
  6  7  2  0
  7  8  1  0
  8  9  2  0
  6 10  1  0
 10 11  3  0
  9  4  1  0
  5 12  1  0
  7 13  1  0
  8 14  1  0
  9 15  1  0
M  CHG  2   1  -1   2   1
M  END
