
     RDKit          3D

 17 17  0  0  0  0  0  0  0  0999 V2000
   -2.3375    0.8174    1.4973 O   0  0  0  0  0  0  0  0  0  0  0  0
   -2.1446   -0.0410    0.4069 C   0  0  0  0  0  0  0  0  0  0  0  0
   -0.6772   -0.1682    0.1033 C   0  0  0  0  0  0  0  0  0  0  0  0
   -0.0346    0.7920   -0.6954 C   0  0  0  0  0  0  0  0  0  0  0  0
    1.3409    0.6931   -0.9514 C   0  0  0  0  0  0  0  0  0  0  0  0
    2.0766   -0.3610   -0.3999 C   0  0  0  0  0  0  0  0  0  0  0  0
    1.4451   -1.3102    0.4084 C   0  0  0  0  0  0  0  0  0  0  0  0
    0.0743   -1.2128    0.6649 C   0  0  0  0  0  0  0  0  0  0  0  0
    1.9843    1.6366   -1.7491 O   0  0  0  0  0  0  0  0  0  0  0  0
   -2.0937    0.3022    2.3105 H   0  0  0  0  0  0  0  0  0  0  0  0
   -2.6760    0.3766   -0.4747 H   0  0  0  0  0  0  0  0  0  0  0  0
   -2.5947   -1.0390    0.6131 H   0  0  0  0  0  0  0  0  0  0  0  0
   -0.6007    1.6138   -1.1169 H   0  0  0  0  0  0  0  0  0  0  0  0
    3.1386   -0.4414   -0.5940 H   0  0  0  0  0  0  0  0  0  0  0  0
    2.0192   -2.1203    0.8393 H   0  0  0  0  0  0  0  0  0  0  0  0
   -0.4003   -1.9502    1.3004 H   0  0  0  0  0  0  0  0  0  0  0  0
    1.4804    2.4123   -2.1629 H   0  0  0  0  0  0  0  0  0  0  0  0
  1  2  1  0
  2  3  1  0
  3  4  2  0
  4  5  1  0
  5  6  2  0
  6  7  1  0
  7  8  2  0
  5  9  1  0
  8  3  1  0
  1 10  1  0
  2 11  1  0
  2 12  1  0
  4 13  1  0
  6 14  1  0
  7 15  1  0
  8 16  1  0
  9 17  1  0
M  END
