
     RDKit          3D

 25 26  0  0  0  0  0  0  0  0999 V2000
    5.0008    1.1439   -1.6617 O   0  0  0  0  0  1  0  0  0  0  0  0
    4.7032    0.5280   -0.4675 N   0  0  0  0  0  4  0  0  0  0  0  0
    5.6227    0.3341    0.3546 O   0  0  0  0  0  0  0  0  0  0  0  0
    3.3555    0.1177   -0.1722 C   0  0  0  0  0  0  0  0  0  0  0  0
    2.3253    0.3354   -1.1035 C   0  0  0  0  0  0  0  0  0  0  0  0
    1.0155   -0.0615   -0.8187 C   0  0  0  0  0  0  0  0  0  0  0  0
    0.7103   -0.6731    0.4092 C   0  0  0  0  0  0  0  0  0  0  0  0
   -0.5884   -1.0999    0.7240 O   0  0  0  0  0  0  0  0  0  0  0  0
   -1.7736   -0.4924    0.2836 C   0  0  0  0  0  0  0  0  0  0  0  0
   -1.8587    0.8933    0.0503 C   0  0  0  0  0  0  0  0  0  0  0  0
   -3.0643    1.4626   -0.3720 C   0  0  0  0  0  0  0  0  0  0  0  0
   -4.1932    0.6589   -0.5523 C   0  0  0  0  0  0  0  0  0  0  0  0
   -4.1200   -0.7143   -0.3032 C   0  0  0  0  0  0  0  0  0  0  0  0
   -2.9158   -1.2863    0.1194 C   0  0  0  0  0  0  0  0  0  0  0  0
    1.7367   -0.9098    1.3287 C   0  0  0  0  0  0  0  0  0  0  0  0
    3.0473   -0.5135    1.0469 C   0  0  0  0  0  0  0  0  0  0  0  0
    2.5324    0.8064   -2.0556 H   0  0  0  0  0  0  0  0  0  0  0  0
    0.2463    0.0912   -1.5644 H   0  0  0  0  0  0  0  0  0  0  0  0
   -1.0025    1.5344    0.2129 H   0  0  0  0  0  0  0  0  0  0  0  0
   -3.1251    2.5281   -0.5522 H   0  0  0  0  0  0  0  0  0  0  0  0
   -5.1260    1.1010   -0.8778 H   0  0  0  0  0  0  0  0  0  0  0  0
   -4.9965   -1.3353   -0.4357 H   0  0  0  0  0  0  0  0  0  0  0  0
   -2.8672   -2.3504    0.3128 H   0  0  0  0  0  0  0  0  0  0  0  0
    1.5160   -1.3963    2.2704 H   0  0  0  0  0  0  0  0  0  0  0  0
    3.8194   -0.7021    1.7818 H   0  0  0  0  0  0  0  0  0  0  0  0
  1  2  1  0
  2  3  2  0
  2  4  1  0
  4  5  2  0
  5  6  1  0
  6  7  2  0
  7  8  1  0
  8  9  1  0
  9 10  2  0
 10 11  1  0
 11 12  2  0
 12 13  1  0
 13 14  2  0
  7 15  1  0
 15 16  2  0
 16  4  1  0
 14  9  1  0
  5 17  1  0
  6 18  1  0
 10 19  1  0
 11 20  1  0
 12 21  1  0
 13 22  1  0
 14 23  1  0
 15 24  1  0
 16 25  1  0
M  CHG  2   1  -1   2   1
M  END
