
     RDKit          3D

 17 17  0  0  0  0  0  0  0  0999 V2000
    4.9841    1.5458   -0.3609 S   0  0  0  0  0  0  0  0  0  0  0  0
    3.4212    1.2211   -0.1424 C   0  0  0  0  0  0  0  0  0  0  0  0
    2.1877    0.9643    0.0297 N   0  0  0  0  0  0  0  0  0  0  0  0
    1.5847   -0.2375   -0.5283 C   0  0  0  0  0  0  0  0  0  0  0  0
    0.1277   -0.2776   -0.1680 C   0  0  0  0  0  0  0  0  0  0  0  0
   -0.2890   -0.8756    1.0331 C   0  0  0  0  0  0  0  0  0  0  0  0
   -1.6429   -0.8822    1.3835 C   0  0  0  0  0  0  0  0  0  0  0  0
   -2.5867   -0.2831    0.5446 C   0  0  0  0  0  0  0  0  0  0  0  0
   -2.1777    0.3276   -0.6441 C   0  0  0  0  0  0  0  0  0  0  0  0
   -0.8248    0.3365   -0.9984 C   0  0  0  0  0  0  0  0  0  0  0  0
    1.7039   -0.2398   -1.6347 H   0  0  0  0  0  0  0  0  0  0  0  0
    2.1012   -1.1385   -0.1285 H   0  0  0  0  0  0  0  0  0  0  0  0
    0.4332   -1.3353    1.6965 H   0  0  0  0  0  0  0  0  0  0  0  0
   -1.9600   -1.3486    2.3074 H   0  0  0  0  0  0  0  0  0  0  0  0
   -3.6340   -0.2879    0.8180 H   0  0  0  0  0  0  0  0  0  0  0  0
   -2.9086    0.7975   -1.2895 H   0  0  0  0  0  0  0  0  0  0  0  0
   -0.5200    0.8211   -1.9178 H   0  0  0  0  0  0  0  0  0  0  0  0
  1  2  2  0
  2  3  2  0
  3  4  1  0
  4  5  1  0
  5  6  2  0
  6  7  1  0
  7  8  2  0
  8  9  1  0
  9 10  2  0
 10  5  1  0
  4 11  1  0
  4 12  1  0
  6 13  1  0
  7 14  1  0
  8 15  1  0
  9 16  1  0
 10 17  1  0
M  END
