
     RDKit          3D

 24 23  0  0  0  0  0  0  0  0999 V2000
    2.7304    0.5844   -0.9910 C   0  0  0  0  0  0  0  0  0  0  0  0
    2.8934   -0.0540    0.3867 C   0  0  0  0  0  0  0  0  0  0  0  0
    2.3483   -1.4883    0.4226 C   0  0  0  0  0  0  0  0  0  0  0  0
    0.9833   -1.5280    0.0769 O   0  0  0  0  0  0  0  0  0  0  0  0
    0.0613   -1.1833    1.4814 S   0  0  0  0  0  4  0  0  0  0  0  0
   -1.1519   -2.0989    1.3730 O   0  0  0  0  0  0  0  0  0  0  0  0
   -0.5433    0.4104    1.2393 O   0  0  0  0  0  0  0  0  0  0  0  0
   -1.2811    0.4893    0.0378 C   0  0  0  0  0  0  0  0  0  0  0  0
   -2.7693    0.6353    0.3592 C   0  0  0  0  0  0  0  0  0  0  0  0
   -3.6007    0.7824   -0.9120 C   0  0  0  0  0  0  0  0  0  0  0  0
    1.6551    0.6690   -1.2555 H   0  0  0  0  0  0  0  0  0  0  0  0
    3.2521   -0.0218   -1.7618 H   0  0  0  0  0  0  0  0  0  0  0  0
    3.1717    1.6032   -0.9819 H   0  0  0  0  0  0  0  0  0  0  0  0
    3.9736   -0.0743    0.6475 H   0  0  0  0  0  0  0  0  0  0  0  0
    2.3736    0.5697    1.1449 H   0  0  0  0  0  0  0  0  0  0  0  0
    2.9088   -2.0991   -0.3168 H   0  0  0  0  0  0  0  0  0  0  0  0
    2.5466   -1.9517    1.4165 H   0  0  0  0  0  0  0  0  0  0  0  0
   -1.1265   -0.3713   -0.6515 H   0  0  0  0  0  0  0  0  0  0  0  0
   -0.9429    1.3958   -0.5081 H   0  0  0  0  0  0  0  0  0  0  0  0
   -2.9230    1.5310    0.9994 H   0  0  0  0  0  0  0  0  0  0  0  0
   -3.1192   -0.2582    0.9191 H   0  0  0  0  0  0  0  0  0  0  0  0
   -3.4834   -0.1153   -1.5557 H   0  0  0  0  0  0  0  0  0  0  0  0
   -3.2841    1.6843   -1.4782 H   0  0  0  0  0  0  0  0  0  0  0  0
   -4.6730    0.8895   -0.6443 H   0  0  0  0  0  0  0  0  0  0  0  0
  1  2  1  0
  2  3  1  0
  3  4  1  0
  4  5  1  0
  5  6  2  0
  5  7  1  0
  7  8  1  0
  8  9  1  0
  9 10  1  0
  1 11  1  0
  1 12  1  0
  1 13  1  0
  2 14  1  0
  2 15  1  0
  3 16  1  0
  3 17  1  0
  8 18  1  0
  8 19  1  0
  9 20  1  0
  9 21  1  0
 10 22  1  0
 10 23  1  0
 10 24  1  0
M  END
