
     RDKit          3D

 14 13  0  0  0  0  0  0  0  0999 V2000
    2.3204   -0.4585    0.0311 C   0  0  0  0  0  0  0  0  0  0  0  0
    0.8312   -0.3745   -0.0685 C   0  0  0  0  0  0  0  0  0  0  0  0
    0.1856    0.7503    0.2579 C   0  0  0  0  0  0  0  0  0  0  0  0
   -1.2824    0.8952    0.1808 C   0  0  0  0  0  0  0  0  0  0  0  0
   -2.1777   -0.2182   -0.2742 C   0  0  0  0  0  0  0  0  0  0  0  0
   -1.7984    1.9963    0.5103 O   0  0  0  0  0  0  0  0  0  0  0  0
    2.6614   -1.4674   -0.2822 H   0  0  0  0  0  0  0  0  0  0  0  0
    2.6411   -0.2813    1.0795 H   0  0  0  0  0  0  0  0  0  0  0  0
    2.7883    0.2997   -0.6319 H   0  0  0  0  0  0  0  0  0  0  0  0
    0.2920   -1.2481   -0.4115 H   0  0  0  0  0  0  0  0  0  0  0  0
    0.7591    1.6055    0.5976 H   0  0  0  0  0  0  0  0  0  0  0  0
   -3.2405    0.1048   -0.2560 H   0  0  0  0  0  0  0  0  0  0  0  0
   -1.9164   -0.5112   -1.3126 H   0  0  0  0  0  0  0  0  0  0  0  0
   -2.0637   -1.0927    0.4000 H   0  0  0  0  0  0  0  0  0  0  0  0
  1  2  1  0
  2  3  2  0
  3  4  1  0
  4  5  1  0
  4  6  2  0
  1  7  1  0
  1  8  1  0
  1  9  1  0
  2 10  1  0
  3 11  1  0
  5 12  1  0
  5 13  1  0
  5 14  1  0
M  END
