
     RDKit          3D

 14 13  0  0  0  0  0  0  0  0999 V2000
   -1.8823    0.4953   -0.3804 C   0  0  0  0  0  0  0  0  0  0  0  0
   -1.0266   -0.7647   -0.4554 C   0  0  0  0  0  0  0  0  0  0  0  0
    0.3917   -0.4197   -0.5585 N   0  0  0  0  0  0  0  0  0  0  0  0
    1.2025    0.0148    0.5471 C   0  0  0  0  0  0  0  0  0  0  0  0
    2.5572    0.4020    0.3145 N   0  0  0  0  0  0  0  0  0  0  0  0
    0.6223    0.0290    2.0833 S   0  0  0  0  0  0  0  0  0  0  0  0
   -2.9559    0.2142   -0.3433 H   0  0  0  0  0  0  0  0  0  0  0  0
   -1.6381    1.0819    0.5291 H   0  0  0  0  0  0  0  0  0  0  0  0
   -1.7084    1.1265   -1.2775 H   0  0  0  0  0  0  0  0  0  0  0  0
   -1.2059   -1.4105    0.4305 H   0  0  0  0  0  0  0  0  0  0  0  0
   -1.3276   -1.3411   -1.3569 H   0  0  0  0  0  0  0  0  0  0  0  0
    0.8485   -0.5240   -1.4925 H   0  0  0  0  0  0  0  0  0  0  0  0
    3.1698    0.7062    1.1038 H   0  0  0  0  0  0  0  0  0  0  0  0
    2.9528    0.3900   -0.6515 H   0  0  0  0  0  0  0  0  0  0  0  0
  1  2  1  0
  2  3  1  0
  3  4  1  0
  4  5  1  0
  4  6  2  0
  1  7  1  0
  1  8  1  0
  1  9  1  0
  2 10  1  0
  2 11  1  0
  3 12  1  0
  5 13  1  0
  5 14  1  0
M  END
