
     RDKit          3D

 13 13  0  0  0  0  0  0  0  0999 V2000
   -2.4864   -0.6053   -0.0288 O   0  0  0  0  0  0  0  0  0  0  0  0
   -1.1482   -0.2187   -0.0431 C   0  0  0  0  0  0  0  0  0  0  0  0
   -0.1570   -1.0525    0.4956 C   0  0  0  0  0  0  0  0  0  0  0  0
    1.1841   -0.6521    0.4749 C   0  0  0  0  0  0  0  0  0  0  0  0
    1.5364    0.5815   -0.0839 C   0  0  0  0  0  0  0  0  0  0  0  0
    0.5494    1.4136   -0.6213 C   0  0  0  0  0  0  0  0  0  0  0  0
   -0.7908    1.0143   -0.6010 C   0  0  0  0  0  0  0  0  0  0  0  0
    2.6730   -1.9070    1.2852 I   0  0  0  0  0  0  0  0  0  0  0  0
   -2.7772   -1.4913    0.3676 H   0  0  0  0  0  0  0  0  0  0  0  0
   -0.4272   -2.0072    0.9283 H   0  0  0  0  0  0  0  0  0  0  0  0
    2.5721    0.8948   -0.1019 H   0  0  0  0  0  0  0  0  0  0  0  0
    0.8229    2.3676   -1.0533 H   0  0  0  0  0  0  0  0  0  0  0  0
   -1.5512    1.6621   -1.0183 H   0  0  0  0  0  0  0  0  0  0  0  0
  1  2  1  0
  2  3  2  0
  3  4  1  0
  4  5  2  0
  5  6  1  0
  6  7  2  0
  4  8  1  0
  7  2  1  0
  1  9  1  0
  3 10  1  0
  5 11  1  0
  6 12  1  0
  7 13  1  0
M  END
