
     RDKit          3D

 13 12  0  0  0  0  0  0  0  0999 V2000
    1.9151   -1.5978    0.3916 O   0  0  0  0  0  0  0  0  0  0  0  0
    0.9352   -0.6253    0.6339 C   0  0  0  0  0  0  0  0  0  0  0  0
    0.2557   -0.2216   -0.6775 C   0  0  0  0  0  0  0  0  0  0  0  0
   -0.7887    0.8363   -0.4500 C   0  0  0  0  0  0  0  0  0  0  0  0
   -1.9443    0.5640    0.1634 C   0  0  0  0  0  0  0  0  0  0  0  0
    2.6983   -1.1230    0.0081 H   0  0  0  0  0  0  0  0  0  0  0  0
    0.1828   -1.0533    1.3298 H   0  0  0  0  0  0  0  0  0  0  0  0
    1.3893    0.2666    1.1241 H   0  0  0  0  0  0  0  0  0  0  0  0
   -0.2087   -1.1120   -1.1549 H   0  0  0  0  0  0  0  0  0  0  0  0
    1.0230    0.1806   -1.3737 H   0  0  0  0  0  0  0  0  0  0  0  0
   -0.6116    1.8409   -0.8227 H   0  0  0  0  0  0  0  0  0  0  0  0
   -2.6842    1.3460    0.2994 H   0  0  0  0  0  0  0  0  0  0  0  0
   -2.1619   -0.4352    0.5286 H   0  0  0  0  0  0  0  0  0  0  0  0
  1  2  1  0
  2  3  1  0
  3  4  1  0
  4  5  2  3
  1  6  1  0
  2  7  1  0
  2  8  1  0
  3  9  1  0
  3 10  1  0
  4 11  1  0
  5 12  1  0
  5 13  1  0
M  END
