
     RDKit          3D

 16 16  0  0  0  0  0  0  0  0999 V2000
   -1.2513   -2.2094   -0.5205 O   0  0  0  0  0  0  0  0  0  0  0  0
   -0.7072   -1.2190   -0.0566 C   0  0  0  0  0  0  0  0  0  0  0  0
   -1.4954    0.0410    0.1882 C   0  0  0  0  0  0  0  0  0  0  0  0
   -0.7423    1.2646   -0.3509 C   0  0  0  0  0  0  0  0  0  0  0  0
    0.7072    1.2190    0.0566 C   0  0  0  0  0  0  0  0  0  0  0  0
    1.2513    2.2094    0.5205 O   0  0  0  0  0  0  0  0  0  0  0  0
    1.4954   -0.0410   -0.1882 C   0  0  0  0  0  0  0  0  0  0  0  0
    0.7423   -1.2646    0.3509 C   0  0  0  0  0  0  0  0  0  0  0  0
   -1.6515    0.1560    1.2826 H   0  0  0  0  0  0  0  0  0  0  0  0
   -2.4924   -0.0234   -0.2995 H   0  0  0  0  0  0  0  0  0  0  0  0
   -1.2239    2.1917    0.0294 H   0  0  0  0  0  0  0  0  0  0  0  0
   -0.7997    1.2743   -1.4608 H   0  0  0  0  0  0  0  0  0  0  0  0
    1.6515   -0.1560   -1.2826 H   0  0  0  0  0  0  0  0  0  0  0  0
    2.4924    0.0234    0.2995 H   0  0  0  0  0  0  0  0  0  0  0  0
    1.2239   -2.1917   -0.0294 H   0  0  0  0  0  0  0  0  0  0  0  0
    0.7997   -1.2743    1.4608 H   0  0  0  0  0  0  0  0  0  0  0  0
  1  2  2  0
  2  3  1  0
  3  4  1  0
  4  5  1  0
  5  6  2  0
  5  7  1  0
  7  8  1  0
  8  2  1  0
  3  9  1  0
  3 10  1  0
  4 11  1  0
  4 12  1  0
  7 13  1  0
  7 14  1  0
  8 15  1  0
  8 16  1  0
M  END
