
     RDKit          3D

 21 20  0  0  0  0  0  0  0  0999 V2000
    3.2206   -0.5158   -0.2548 C   0  0  0  0  0  0  0  0  0  0  0  0
    2.2559   -1.0027    0.8201 C   0  0  0  0  0  0  0  0  0  0  0  0
    0.9307   -0.5523    0.5470 O   0  0  0  0  0  0  0  0  0  0  0  0
    0.4991    0.7616    0.7643 C   0  0  0  0  0  0  0  0  0  0  0  0
    1.2779    1.6006    1.2932 O   0  0  0  0  0  0  0  0  0  0  0  0
   -0.8678    1.1986    0.4056 C   0  0  0  0  0  0  0  0  0  0  0  0
   -1.7981    0.4577   -0.2327 C   0  0  0  0  0  0  0  0  0  0  0  0
   -3.1448    1.0586   -0.5361 C   0  0  0  0  0  0  0  0  0  0  0  0
   -1.5431   -0.9479   -0.7067 C   0  0  0  0  0  0  0  0  0  0  0  0
    3.2746    0.5928   -0.2533 H   0  0  0  0  0  0  0  0  0  0  0  0
    4.2349   -0.9225   -0.0581 H   0  0  0  0  0  0  0  0  0  0  0  0
    2.8807   -0.8627   -1.2535 H   0  0  0  0  0  0  0  0  0  0  0  0
    2.5858   -0.6545    1.8230 H   0  0  0  0  0  0  0  0  0  0  0  0
    2.2574   -2.1131    0.8235 H   0  0  0  0  0  0  0  0  0  0  0  0
   -1.1214    2.2150    0.6851 H   0  0  0  0  0  0  0  0  0  0  0  0
   -3.9446    0.3941   -0.1467 H   0  0  0  0  0  0  0  0  0  0  0  0
   -3.2646    1.1600   -1.6351 H   0  0  0  0  0  0  0  0  0  0  0  0
   -3.2764    2.0607   -0.0741 H   0  0  0  0  0  0  0  0  0  0  0  0
   -1.3484   -1.6134    0.1603 H   0  0  0  0  0  0  0  0  0  0  0  0
   -2.4262   -1.3495   -1.2479 H   0  0  0  0  0  0  0  0  0  0  0  0
   -0.6822   -0.9654   -1.4078 H   0  0  0  0  0  0  0  0  0  0  0  0
  1  2  1  0
  2  3  1  0
  3  4  1  0
  4  5  2  0
  4  6  1  0
  6  7  2  3
  7  8  1  0
  7  9  1  0
  1 10  1  0
  1 11  1  0
  1 12  1  0
  2 13  1  0
  2 14  1  0
  6 15  1  0
  8 16  1  0
  8 17  1  0
  8 18  1  0
  9 19  1  0
  9 20  1  0
  9 21  1  0
M  END
