
     RDKit          3D

 38 37  0  0  0  0  0  0  0  0999 V2000
    6.9389    0.4966    1.1492 O   0  0  0  0  0  0  0  0  0  0  0  0
    6.2112    0.5484   -0.0361 C   0  0  0  0  0  0  0  0  0  0  0  0
    6.8218    0.5889   -1.1367 O   0  0  0  0  0  0  0  0  0  0  0  0
    4.7132    0.5097   -0.0126 C   0  0  0  0  0  0  0  0  0  0  0  0
    4.2180   -0.9378    0.1003 C   0  0  0  0  0  0  0  0  0  0  0  0
    2.6878   -1.0471    0.0088 C   0  0  0  0  0  0  0  0  0  0  0  0
    1.9793   -0.4656    1.2451 C   0  0  0  0  0  0  0  0  0  0  0  0
    0.4820   -0.8101    1.2839 C   0  0  0  0  0  0  0  0  0  0  0  0
   -0.3202   -0.0807    0.1960 C   0  0  0  0  0  0  0  0  0  0  0  0
   -1.8222   -0.3497    0.3482 C   0  0  0  0  0  0  0  0  0  0  0  0
   -2.6241    0.3695   -0.7431 C   0  0  0  0  0  0  0  0  0  0  0  0
   -4.1258    0.1003   -0.5908 C   0  0  0  0  0  0  0  0  0  0  0  0
   -4.9262    0.8191   -1.6805 C   0  0  0  0  0  0  0  0  0  0  0  0
   -6.3917    0.5505   -1.5180 C   0  0  0  0  0  0  0  0  0  0  0  0
   -7.1539    1.2999   -0.6266 O   0  0  0  0  0  0  0  0  0  0  0  0
   -6.9342   -0.3856   -2.1622 O   0  0  0  0  0  0  0  0  0  0  0  0
    6.4734    0.4417    2.0473 H   0  0  0  0  0  0  0  0  0  0  0  0
    4.3570    1.1069    0.8527 H   0  0  0  0  0  0  0  0  0  0  0  0
    4.3168    0.9747   -0.9416 H   0  0  0  0  0  0  0  0  0  0  0  0
    4.5716   -1.3865    1.0548 H   0  0  0  0  0  0  0  0  0  0  0  0
    4.6550   -1.5321   -0.7325 H   0  0  0  0  0  0  0  0  0  0  0  0
    2.4275   -2.1241   -0.0850 H   0  0  0  0  0  0  0  0  0  0  0  0
    2.3384   -0.5327   -0.9118 H   0  0  0  0  0  0  0  0  0  0  0  0
    2.1022    0.6381    1.2743 H   0  0  0  0  0  0  0  0  0  0  0  0
    2.4495   -0.8833    2.1621 H   0  0  0  0  0  0  0  0  0  0  0  0
    0.0883   -0.5131    2.2808 H   0  0  0  0  0  0  0  0  0  0  0  0
    0.3454   -1.9092    1.1827 H   0  0  0  0  0  0  0  0  0  0  0  0
    0.0070   -0.4301   -0.8066 H   0  0  0  0  0  0  0  0  0  0  0  0
   -0.1342    1.0135    0.2697 H   0  0  0  0  0  0  0  0  0  0  0  0
   -2.1606    0.0052    1.3468 H   0  0  0  0  0  0  0  0  0  0  0  0
   -2.0080   -1.4445    0.2803 H   0  0  0  0  0  0  0  0  0  0  0  0
   -2.4379    1.4642   -0.6754 H   0  0  0  0  0  0  0  0  0  0  0  0
   -2.2866    0.0146   -1.7419 H   0  0  0  0  0  0  0  0  0  0  0  0
   -4.3125   -0.9946   -0.6599 H   0  0  0  0  0  0  0  0  0  0  0  0
   -4.4638    0.4542    0.4086 H   0  0  0  0  0  0  0  0  0  0  0  0
   -4.5952    0.4708   -2.6835 H   0  0  0  0  0  0  0  0  0  0  0  0
   -4.7486    1.9147   -1.6199 H   0  0  0  0  0  0  0  0  0  0  0  0
   -6.7385    2.0452   -0.0805 H   0  0  0  0  0  0  0  0  0  0  0  0
  1  2  1  0
  2  3  2  0
  2  4  1  0
  4  5  1  0
  5  6  1  0
  6  7  1  0
  7  8  1  0
  8  9  1  0
  9 10  1  0
 10 11  1  0
 11 12  1  0
 12 13  1  0
 13 14  1  0
 14 15  1  0
 14 16  2  0
  1 17  1  0
  4 18  1  0
  4 19  1  0
  5 20  1  0
  5 21  1  0
  6 22  1  0
  6 23  1  0
  7 24  1  0
  7 25  1  0
  8 26  1  0
  8 27  1  0
  9 28  1  0
  9 29  1  0
 10 30  1  0
 10 31  1  0
 11 32  1  0
 11 33  1  0
 12 34  1  0
 12 35  1  0
 13 36  1  0
 13 37  1  0
 15 38  1  0
M  END
