
     RDKit          3D

 22 22  0  0  0  0  0  0  0  0999 V2000
    3.2394   -0.1508    0.3112 C   0  0  0  0  0  0  0  0  0  0  0  0
    1.7554    0.0433    0.2013 C   0  0  0  0  0  0  0  0  0  0  0  0
    0.9067   -1.0633    0.0950 C   0  0  0  0  0  0  0  0  0  0  0  0
   -0.4818   -0.8979   -0.0451 C   0  0  0  0  0  0  0  0  0  0  0  0
   -1.0314    0.4127   -0.0831 C   0  0  0  0  0  0  0  0  0  0  0  0
   -2.5188    0.6486   -0.2192 C   0  0  0  0  0  0  0  0  0  0  0  0
   -0.1584    1.5264   -0.0080 C   0  0  0  0  0  0  0  0  0  0  0  0
    1.2181    1.3314    0.1305 C   0  0  0  0  0  0  0  0  0  0  0  0
   -0.6246    2.8424   -0.0723 O   0  0  0  0  0  0  0  0  0  0  0  0
   -1.3451   -2.1295   -0.1495 C   0  0  0  0  0  0  0  0  0  0  0  0
    3.4724   -1.0872    0.8616 H   0  0  0  0  0  0  0  0  0  0  0  0
    3.6803   -0.2091   -0.7058 H   0  0  0  0  0  0  0  0  0  0  0  0
    3.7067    0.6940    0.8608 H   0  0  0  0  0  0  0  0  0  0  0  0
    1.3333   -2.0593    0.1218 H   0  0  0  0  0  0  0  0  0  0  0  0
   -2.8745    1.2841    0.6188 H   0  0  0  0  0  0  0  0  0  0  0  0
   -3.1212   -0.2791   -0.1938 H   0  0  0  0  0  0  0  0  0  0  0  0
   -2.7267    1.1596   -1.1827 H   0  0  0  0  0  0  0  0  0  0  0  0
    1.8721    2.1938    0.1818 H   0  0  0  0  0  0  0  0  0  0  0  0
   -1.5994    3.0844   -0.1928 H   0  0  0  0  0  0  0  0  0  0  0  0
   -0.7396   -3.0608   -0.1486 H   0  0  0  0  0  0  0  0  0  0  0  0
   -1.9233   -2.1069   -1.0971 H   0  0  0  0  0  0  0  0  0  0  0  0
   -2.0398   -2.1767    0.7153 H   0  0  0  0  0  0  0  0  0  0  0  0
  1  2  1  0
  2  3  2  0
  3  4  1  0
  4  5  2  0
  5  6  1  0
  5  7  1  0
  7  8  2  0
  7  9  1  0
  4 10  1  0
  8  2  1  0
  1 11  1  0
  1 12  1  0
  1 13  1  0
  3 14  1  0
  6 15  1  0
  6 16  1  0
  6 17  1  0
  8 18  1  0
  9 19  1  0
 10 20  1  0
 10 21  1  0
 10 22  1  0
M  END
