
     RDKit          3D

 17 17  0  0  0  0  0  0  0  0999 V2000
   -1.5729    1.5469    1.3833 O   0  0  0  0  0  0  0  0  0  0  0  0
   -0.7244    0.7053    0.6616 C   0  0  0  0  0  0  0  0  0  0  0  0
   -1.1983   -0.4439   -0.0152 C   0  0  0  0  0  0  0  0  0  0  0  0
   -0.3035   -1.1926   -0.7966 C   0  0  0  0  0  0  0  0  0  0  0  0
    1.0443   -0.8362   -0.8762 C   0  0  0  0  0  0  0  0  0  0  0  0
    1.5248    0.2783   -0.1777 C   0  0  0  0  0  0  0  0  0  0  0  0
    0.6326    1.0441    0.5898 C   0  0  0  0  0  0  0  0  0  0  0  0
    2.9534    0.6333   -0.2669 C   0  0  0  0  0  0  0  0  0  0  0  0
    3.4159    1.6308    0.3480 O   0  0  0  0  0  0  0  0  0  0  0  0
   -2.5639   -0.8755    0.0934 N   0  0  0  0  0  4  0  0  0  0  0  0
   -3.1665   -1.5158   -0.9650 O   0  0  0  0  0  1  0  0  0  0  0  0
   -3.1371   -0.8771    1.2021 O   0  0  0  0  0  0  0  0  0  0  0  0
   -2.5802    1.4601    1.3712 H   0  0  0  0  0  0  0  0  0  0  0  0
   -0.6452   -2.0725   -1.3271 H   0  0  0  0  0  0  0  0  0  0  0  0
    1.7148   -1.4383   -1.4776 H   0  0  0  0  0  0  0  0  0  0  0  0
    0.9823    1.9210    1.1210 H   0  0  0  0  0  0  0  0  0  0  0  0
    3.6238    0.0322   -0.8681 H   0  0  0  0  0  0  0  0  0  0  0  0
  1  2  1  0
  2  3  2  0
  3  4  1  0
  4  5  2  0
  5  6  1  0
  6  7  2  0
  6  8  1  0
  8  9  2  0
  3 10  1  0
 10 11  1  0
 10 12  2  0
  7  2  1  0
  1 13  1  0
  4 14  1  0
  5 15  1  0
  7 16  1  0
  8 17  1  0
M  CHG  2  10   1  11  -1
M  END
