
     RDKit          3D

 13 13  0  0  0  0  0  0  0  0999 V2000
   -2.0358    2.5756   -0.0363 Cl  0  0  0  0  0  0  0  0  0  0  0  0
   -1.0724    1.1101    0.0011 C   0  0  0  0  0  0  0  0  0  0  0  0
   -1.6955   -0.1334    0.1565 C   0  0  0  0  0  0  0  0  0  0  0  0
   -0.9281   -1.3019    0.1863 C   0  0  0  0  0  0  0  0  0  0  0  0
    0.4630   -1.2306    0.0611 C   0  0  0  0  0  0  0  0  0  0  0  0
    1.0903    0.0129   -0.0946 C   0  0  0  0  0  0  0  0  0  0  0  0
    0.3202    1.1838   -0.1245 C   0  0  0  0  0  0  0  0  0  0  0  0
    2.5220    0.0875   -0.2236 C   0  0  0  0  0  0  0  0  0  0  0  0
    3.6731    0.1475   -0.3274 N   0  0  0  0  0  0  0  0  0  0  0  0
   -2.7719   -0.1952    0.2539 H   0  0  0  0  0  0  0  0  0  0  0  0
   -1.4114   -2.2629    0.3066 H   0  0  0  0  0  0  0  0  0  0  0  0
    1.0480   -2.1422    0.0856 H   0  0  0  0  0  0  0  0  0  0  0  0
    0.7985    2.1487   -0.2446 H   0  0  0  0  0  0  0  0  0  0  0  0
  1  2  1  0
  2  3  2  0
  3  4  1  0
  4  5  2  0
  5  6  1  0
  6  7  2  0
  6  8  1  0
  8  9  3  0
  7  2  1  0
  3 10  1  0
  4 11  1  0
  5 12  1  0
  7 13  1  0
M  END
