
     RDKit          3D

 19 19  0  0  0  0  0  0  0  0999 V2000
    4.0323    0.3184    0.9242 C   0  0  0  0  0  0  0  0  0  0  0  0
    3.1368   -0.4712    0.3464 C   0  0  0  0  0  0  0  0  0  0  0  0
    1.8114   -0.0481    0.2272 O   0  0  0  0  0  0  0  0  0  0  0  0
    0.8103   -0.8238   -0.3692 C   0  0  0  0  0  0  0  0  0  0  0  0
    1.0830   -1.9660   -0.8325 O   0  0  0  0  0  0  0  0  0  0  0  0
   -0.5711   -0.3000   -0.4552 C   0  0  0  0  0  0  0  0  0  0  0  0
   -0.8816    0.9723    0.0592 C   0  0  0  0  0  0  0  0  0  0  0  0
   -2.1865    1.4689   -0.0212 C   0  0  0  0  0  0  0  0  0  0  0  0
   -3.1929    0.7033   -0.6142 C   0  0  0  0  0  0  0  0  0  0  0  0
   -2.8967   -0.5610   -1.1284 C   0  0  0  0  0  0  0  0  0  0  0  0
   -1.5937   -1.0628   -1.0508 C   0  0  0  0  0  0  0  0  0  0  0  0
    5.0611   -0.0038    1.0197 H   0  0  0  0  0  0  0  0  0  0  0  0
    3.7439    1.2898    1.3048 H   0  0  0  0  0  0  0  0  0  0  0  0
    3.4469   -1.4397   -0.0276 H   0  0  0  0  0  0  0  0  0  0  0  0
   -0.1184    1.5842    0.5234 H   0  0  0  0  0  0  0  0  0  0  0  0
   -2.4173    2.4486    0.3769 H   0  0  0  0  0  0  0  0  0  0  0  0
   -4.2020    1.0898   -0.6753 H   0  0  0  0  0  0  0  0  0  0  0  0
   -3.6775   -1.1534   -1.5877 H   0  0  0  0  0  0  0  0  0  0  0  0
   -1.3879   -2.0455   -1.4563 H   0  0  0  0  0  0  0  0  0  0  0  0
  1  2  2  3
  2  3  1  0
  3  4  1  0
  4  5  2  0
  4  6  1  0
  6  7  2  0
  7  8  1  0
  8  9  2  0
  9 10  1  0
 10 11  2  0
 11  6  1  0
  1 12  1  0
  1 13  1  0
  2 14  1  0
  7 15  1  0
  8 16  1  0
  9 17  1  0
 10 18  1  0
 11 19  1  0
M  END
