
     RDKit          3D

 13 13  0  0  0  0  0  0  0  0999 V2000
    2.4315    0.5665   -0.4677 O   0  0  0  0  0  0  0  0  0  0  0  0
    1.0900    0.2803   -0.2187 C   0  0  0  0  0  0  0  0  0  0  0  0
    0.6983   -0.9822    0.2571 C   0  0  0  0  0  0  0  0  0  0  0  0
    1.6242   -1.9479    0.4830 F   0  0  0  0  0  0  0  0  0  0  0  0
   -0.6537   -1.2501    0.5011 C   0  0  0  0  0  0  0  0  0  0  0  0
   -1.6169   -0.2616    0.2716 C   0  0  0  0  0  0  0  0  0  0  0  0
   -2.9265   -0.5229    0.5086 F   0  0  0  0  0  0  0  0  0  0  0  0
   -1.2293    0.9964   -0.2022 C   0  0  0  0  0  0  0  0  0  0  0  0
    0.1219    1.2670   -0.4470 C   0  0  0  0  0  0  0  0  0  0  0  0
    0.4929    2.4884   -0.9064 F   0  0  0  0  0  0  0  0  0  0  0  0
   -2.1635    1.9542   -0.4244 F   0  0  0  0  0  0  0  0  0  0  0  0
   -1.0308   -2.4693    0.9605 F   0  0  0  0  0  0  0  0  0  0  0  0
    3.1619   -0.1189   -0.3156 H   0  0  0  0  0  0  0  0  0  0  0  0
  1  2  1  0
  2  3  2  0
  3  4  1  0
  3  5  1  0
  5  6  2  0
  6  7  1  0
  6  8  1  0
  8  9  2  0
  9 10  1  0
  8 11  1  0
  5 12  1  0
  9  2  1  0
  1 13  1  0
M  END
