
     RDKit          3D

 13 12  0  0  0  0  0  0  0  0999 V2000
   -1.7626   -0.1191   -0.1881 C   0  0  0  0  0  0  0  0  0  0  0  0
   -0.5665    0.7175    0.2539 C   0  0  0  0  0  0  0  0  0  0  0  0
    0.6067   -0.1634    0.5937 C   0  0  0  0  0  0  0  0  0  0  0  0
    0.5451   -0.8943    1.5712 O   0  0  0  0  0  0  0  0  0  0  0  0
    1.8608   -0.1466   -0.2322 C   0  0  0  0  0  0  0  0  0  0  0  0
    2.1157   -1.8697   -1.0783 Br  0  0  0  0  0  0  0  0  0  0  0  0
   -2.6102    0.5507   -0.4450 H   0  0  0  0  0  0  0  0  0  0  0  0
   -2.0838   -0.7992    0.6296 H   0  0  0  0  0  0  0  0  0  0  0  0
   -1.4999   -0.7209   -1.0845 H   0  0  0  0  0  0  0  0  0  0  0  0
   -0.3049    1.4253   -0.5615 H   0  0  0  0  0  0  0  0  0  0  0  0
   -0.8439    1.3176    1.1470 H   0  0  0  0  0  0  0  0  0  0  0  0
    1.8112    0.6285   -1.0251 H   0  0  0  0  0  0  0  0  0  0  0  0
    2.7323    0.0736    0.4193 H   0  0  0  0  0  0  0  0  0  0  0  0
  1  2  1  0
  2  3  1  0
  3  4  2  0
  3  5  1  0
  5  6  1  0
  1  7  1  0
  1  8  1  0
  1  9  1  0
  2 10  1  0
  2 11  1  0
  5 12  1  0
  5 13  1  0
M  END
