
     RDKit          3D

 18 18  0  0  0  0  0  0  0  0999 V2000
   -2.5506   -1.1385    0.3713 C   0  0  0  0  0  0  0  0  0  0  0  0
   -1.8832    0.1166    0.2885 O   0  0  0  0  0  0  0  0  0  0  0  0
   -0.5033    0.2724    0.0807 C   0  0  0  0  0  0  0  0  0  0  0  0
    0.0324    1.5731    0.0186 C   0  0  0  0  0  0  0  0  0  0  0  0
   -0.7833    2.6957    0.1596 O   0  0  0  0  0  0  0  0  0  0  0  0
    1.4041    1.7568   -0.1875 C   0  0  0  0  0  0  0  0  0  0  0  0
    2.2501    0.6557   -0.3328 C   0  0  0  0  0  0  0  0  0  0  0  0
    1.7318   -0.6401   -0.2733 C   0  0  0  0  0  0  0  0  0  0  0  0
    0.3588   -0.8333   -0.0671 C   0  0  0  0  0  0  0  0  0  0  0  0
    2.5883   -1.7291   -0.4200 O   0  0  0  0  0  0  0  0  0  0  0  0
   -2.1506   -1.7284    1.2229 H   0  0  0  0  0  0  0  0  0  0  0  0
   -2.4247   -1.7014   -0.5776 H   0  0  0  0  0  0  0  0  0  0  0  0
   -3.6330   -0.9628    0.5387 H   0  0  0  0  0  0  0  0  0  0  0  0
   -1.7821    2.6218    0.3106 H   0  0  0  0  0  0  0  0  0  0  0  0
    1.8149    2.7574   -0.2350 H   0  0  0  0  0  0  0  0  0  0  0  0
    3.3099    0.8094   -0.4918 H   0  0  0  0  0  0  0  0  0  0  0  0
   -0.0248   -1.8435   -0.0238 H   0  0  0  0  0  0  0  0  0  0  0  0
    2.2455   -2.6819   -0.3821 H   0  0  0  0  0  0  0  0  0  0  0  0
  1  2  1  0
  2  3  1  0
  3  4  2  0
  4  5  1  0
  4  6  1  0
  6  7  2  0
  7  8  1  0
  8  9  2  0
  8 10  1  0
  9  3  1  0
  1 11  1  0
  1 12  1  0
  1 13  1  0
  5 14  1  0
  6 15  1  0
  7 16  1  0
  9 17  1  0
 10 18  1  0
M  END
