
     RDKit          3D

 19 18  0  0  0  0  0  0  0  0999 V2000
   -2.7556   -0.7097   -0.8273 C   0  0  0  0  0  0  0  0  0  0  0  0
   -1.7964    0.0080    0.0835 C   0  0  0  0  0  0  0  0  0  0  0  0
   -2.1900    0.3684    1.3100 C   0  0  0  0  0  0  0  0  0  0  0  0
   -0.4026    0.2391   -0.3566 C   0  0  0  0  0  0  0  0  0  0  0  0
   -0.0275   -0.1744   -1.4882 O   0  0  0  0  0  0  0  0  0  0  0  0
    0.4931    0.9231    0.4764 O   0  0  0  0  0  0  0  0  0  0  0  0
    1.8728    1.1176    0.1675 C   0  0  0  0  0  0  0  0  0  0  0  0
    2.6977   -0.1027    0.5708 C   0  0  0  0  0  0  0  0  0  0  0  0
    2.3675   -1.1991   -0.2348 O   0  0  0  0  0  0  0  0  0  0  0  0
   -3.8122   -0.5256   -0.5357 H   0  0  0  0  0  0  0  0  0  0  0  0
   -2.6289   -0.3571   -1.8726 H   0  0  0  0  0  0  0  0  0  0  0  0
   -2.5565   -1.8010   -0.7865 H   0  0  0  0  0  0  0  0  0  0  0  0
   -1.5156    0.8610    1.9989 H   0  0  0  0  0  0  0  0  0  0  0  0
   -3.1992    0.1736    1.6511 H   0  0  0  0  0  0  0  0  0  0  0  0
    2.2375    1.9923    0.7463 H   0  0  0  0  0  0  0  0  0  0  0  0
    2.0095    1.3471   -0.9119 H   0  0  0  0  0  0  0  0  0  0  0  0
    3.7776    0.1362    0.4490 H   0  0  0  0  0  0  0  0  0  0  0  0
    2.5020   -0.3430    1.6398 H   0  0  0  0  0  0  0  0  0  0  0  0
    2.9268   -1.9538    0.0852 H   0  0  0  0  0  0  0  0  0  0  0  0
  1  2  1  0
  2  3  2  3
  2  4  1  0
  4  5  2  0
  4  6  1  0
  6  7  1  0
  7  8  1  0
  8  9  1  0
  1 10  1  0
  1 11  1  0
  1 12  1  0
  3 13  1  0
  3 14  1  0
  7 15  1  0
  7 16  1  0
  8 17  1  0
  8 18  1  0
  9 19  1  0
M  END
