
     RDKit          3D

 13 13  0  0  0  0  0  0  0  0999 V2000
    1.9698    2.2223    0.0076 Cl  0  0  0  0  0  0  0  0  0  0  0  0
    0.6906    1.0126    0.0041 C   0  0  0  0  0  0  0  0  0  0  0  0
    0.9824   -0.3649   -0.0055 C   0  0  0  0  0  0  0  0  0  0  0  0
   -0.0653   -1.2970   -0.0079 C   0  0  0  0  0  0  0  0  0  0  0  0
   -1.3937   -0.8617   -0.0009 C   0  0  0  0  0  0  0  0  0  0  0  0
   -1.6823    0.5052    0.0086 C   0  0  0  0  0  0  0  0  0  0  0  0
   -0.6433    1.4400    0.0111 C   0  0  0  0  0  0  0  0  0  0  0  0
    2.3450   -0.8359   -0.0128 C   0  0  0  0  0  0  0  0  0  0  0  0
    3.4386   -1.2142   -0.0188 N   0  0  0  0  0  0  0  0  0  0  0  0
    0.1451   -2.3599   -0.0153 H   0  0  0  0  0  0  0  0  0  0  0  0
   -2.1995   -1.5843   -0.0028 H   0  0  0  0  0  0  0  0  0  0  0  0
   -2.7114    0.8404    0.0141 H   0  0  0  0  0  0  0  0  0  0  0  0
   -0.8759    2.4973    0.0185 H   0  0  0  0  0  0  0  0  0  0  0  0
  1  2  1  0
  2  3  2  0
  3  4  1  0
  4  5  2  0
  5  6  1  0
  6  7  2  0
  3  8  1  0
  8  9  3  0
  7  2  1  0
  4 10  1  0
  5 11  1  0
  6 12  1  0
  7 13  1  0
M  END
