
     RDKit          3D

 14 14  0  0  0  0  0  0  0  0999 V2000
    3.6309   -0.3019   -0.2607 Cl  0  0  0  0  0  0  0  0  0  0  0  0
    1.8863   -0.1700   -0.1341 C   0  0  0  0  0  0  0  0  0  0  0  0
    1.2717    1.0820   -0.2146 C   0  0  0  0  0  0  0  0  0  0  0  0
   -0.1207    1.1970   -0.1145 C   0  0  0  0  0  0  0  0  0  0  0  0
   -0.9132    0.0408    0.0692 C   0  0  0  0  0  0  0  0  0  0  0  0
   -2.3864    0.1305    0.1784 C   0  0  0  0  0  0  0  0  0  0  0  0
   -3.0888   -0.9026    0.3421 O   0  0  0  0  0  0  0  0  0  0  0  0
   -0.2792   -1.2140    0.1484 C   0  0  0  0  0  0  0  0  0  0  0  0
    1.1103   -1.3164    0.0473 C   0  0  0  0  0  0  0  0  0  0  0  0
   -0.8256    2.8075   -0.2249 Cl  0  0  0  0  0  0  0  0  0  0  0  0
    1.8776    1.9685   -0.3553 H   0  0  0  0  0  0  0  0  0  0  0  0
   -2.8883    1.0860    0.1196 H   0  0  0  0  0  0  0  0  0  0  0  0
   -0.8573   -2.1190    0.2888 H   0  0  0  0  0  0  0  0  0  0  0  0
    1.5827   -2.2885    0.1102 H   0  0  0  0  0  0  0  0  0  0  0  0
  1  2  1  0
  2  3  2  0
  3  4  1  0
  4  5  2  0
  5  6  1  0
  6  7  2  0
  5  8  1  0
  8  9  2  0
  4 10  1  0
  9  2  1  0
  3 11  1  0
  6 12  1  0
  8 13  1  0
  9 14  1  0
M  END
