
     RDKit          3D

 21 21  0  0  0  0  0  0  0  0999 V2000
    3.0081   -0.4535    0.0503 C   0  0  0  0  0  0  0  0  0  0  0  0
    1.8296    0.2770    0.6188 C   0  0  0  0  0  0  0  0  0  0  0  0
    2.0342    1.1530    1.5014 O   0  0  0  0  0  0  0  0  0  0  0  0
    0.4395   -0.0648    0.2129 C   0  0  0  0  0  0  0  0  0  0  0  0
    0.1318   -1.4011   -0.1084 C   0  0  0  0  0  0  0  0  0  0  0  0
   -1.1654   -1.7713   -0.4650 C   0  0  0  0  0  0  0  0  0  0  0  0
   -2.1828   -0.8152   -0.5068 C   0  0  0  0  0  0  0  0  0  0  0  0
   -3.4828   -1.1768   -0.8536 O   0  0  0  0  0  0  0  0  0  0  0  0
   -1.8964    0.5161   -0.1995 C   0  0  0  0  0  0  0  0  0  0  0  0
   -0.5920    0.9113    0.1476 C   0  0  0  0  0  0  0  0  0  0  0  0
   -0.3345    2.3675    0.4381 C   0  0  0  0  0  0  0  0  0  0  0  0
    3.9169    0.1824    0.1079 H   0  0  0  0  0  0  0  0  0  0  0  0
    3.1840   -1.3847    0.6279 H   0  0  0  0  0  0  0  0  0  0  0  0
    2.8267   -0.7069   -1.0155 H   0  0  0  0  0  0  0  0  0  0  0  0
    0.8920   -2.1705   -0.0642 H   0  0  0  0  0  0  0  0  0  0  0  0
   -1.3801   -2.8059   -0.7012 H   0  0  0  0  0  0  0  0  0  0  0  0
   -3.7233   -2.1342   -1.0824 H   0  0  0  0  0  0  0  0  0  0  0  0
   -2.6965    1.2455   -0.2406 H   0  0  0  0  0  0  0  0  0  0  0  0
   -1.1712    3.0073    0.0846 H   0  0  0  0  0  0  0  0  0  0  0  0
   -0.2218    2.5167    1.5321 H   0  0  0  0  0  0  0  0  0  0  0  0
    0.5841    2.7080   -0.0846 H   0  0  0  0  0  0  0  0  0  0  0  0
  1  2  1  0
  2  3  2  0
  2  4  1  0
  4  5  2  0
  5  6  1  0
  6  7  2  0
  7  8  1  0
  7  9  1  0
  9 10  2  0
 10 11  1  0
 10  4  1  0
  1 12  1  0
  1 13  1  0
  1 14  1  0
  5 15  1  0
  6 16  1  0
  8 17  1  0
  9 18  1  0
 11 19  1  0
 11 20  1  0
 11 21  1  0
M  END
