
     RDKit          3D

 23 24  0  0  0  0  0  0  0  0999 V2000
   -3.9084    0.0537   -0.0218 C   0  0  0  0  0  0  0  0  0  0  0  0
   -2.4252    0.2659   -0.0966 C   0  0  0  0  0  0  0  0  0  0  0  0
   -1.9072    1.4149   -0.7159 C   0  0  0  0  0  0  0  0  0  0  0  0
   -0.5255    1.6007   -0.8210 C   0  0  0  0  0  0  0  0  0  0  0  0
    0.3518    0.6340   -0.3202 C   0  0  0  0  0  0  0  0  0  0  0  0
    1.6964    0.8128   -0.4227 N   0  0  0  0  0  0  0  0  0  0  0  0
    2.5824   -0.1068    0.0493 C   0  0  0  0  0  0  0  0  0  0  0  0
    4.0515    0.1342   -0.0915 C   0  0  0  0  0  0  0  0  0  0  0  0
    2.1132   -1.2793    0.6569 C   0  0  0  0  0  0  0  0  0  0  0  0
    0.7381   -1.4912    0.7760 C   0  0  0  0  0  0  0  0  0  0  0  0
   -0.1596   -0.5331    0.2883 C   0  0  0  0  0  0  0  0  0  0  0  0
   -1.5467   -0.7150    0.3915 C   0  0  0  0  0  0  0  0  0  0  0  0
   -4.2495   -0.4893   -0.9278 H   0  0  0  0  0  0  0  0  0  0  0  0
   -4.4415    1.0263    0.0399 H   0  0  0  0  0  0  0  0  0  0  0  0
   -4.1740   -0.5404    0.8785 H   0  0  0  0  0  0  0  0  0  0  0  0
   -2.5740    2.1682   -1.1172 H   0  0  0  0  0  0  0  0  0  0  0  0
   -0.1396    2.4946   -1.2954 H   0  0  0  0  0  0  0  0  0  0  0  0
    4.5003   -0.6539   -0.7319 H   0  0  0  0  0  0  0  0  0  0  0  0
    4.2420    1.1245   -0.5570 H   0  0  0  0  0  0  0  0  0  0  0  0
    4.5337    0.1124    0.9085 H   0  0  0  0  0  0  0  0  0  0  0  0
    2.8069   -2.0207    1.0338 H   0  0  0  0  0  0  0  0  0  0  0  0
    0.3784   -2.3983    1.2467 H   0  0  0  0  0  0  0  0  0  0  0  0
   -1.9435   -1.6140    0.8496 H   0  0  0  0  0  0  0  0  0  0  0  0
  1  2  1  0
  2  3  2  0
  3  4  1  0
  4  5  2  0
  5  6  1  0
  6  7  2  0
  7  8  1  0
  7  9  1  0
  9 10  2  0
 10 11  1  0
 11 12  2  0
 12  2  1  0
 11  5  1  0
  1 13  1  0
  1 14  1  0
  1 15  1  0
  3 16  1  0
  4 17  1  0
  8 18  1  0
  8 19  1  0
  8 20  1  0
  9 21  1  0
 10 22  1  0
 12 23  1  0
M  END
