
     RDKit          3D

 14 14  0  0  0  0  0  0  0  0999 V2000
    3.0523   -1.0880    0.6774 O   0  0  0  0  0  1  0  0  0  0  0  0
    2.3925   -0.1467   -0.0783 N   0  0  0  0  0  4  0  0  0  0  0  0
    3.0631    0.7279   -0.6650 O   0  0  0  0  0  0  0  0  0  0  0  0
    0.9566   -0.0543   -0.0442 C   0  0  0  0  0  0  0  0  0  0  0  0
    0.3486    1.2103   -0.0848 C   0  0  0  0  0  0  0  0  0  0  0  0
   -1.0400    1.3415   -0.0317 C   0  0  0  0  0  0  0  0  0  0  0  0
   -1.8505    0.1999    0.0574 C   0  0  0  0  0  0  0  0  0  0  0  0
   -3.6055    0.3703    0.1280 Cl  0  0  0  0  0  0  0  0  0  0  0  0
   -1.2594   -1.0764    0.0825 C   0  0  0  0  0  0  0  0  0  0  0  0
    0.1429   -1.2078    0.0271 C   0  0  0  0  0  0  0  0  0  0  0  0
    0.8572   -2.8220   -0.0284 Cl  0  0  0  0  0  0  0  0  0  0  0  0
   -2.2805   -2.5142    0.1736 Cl  0  0  0  0  0  0  0  0  0  0  0  0
   -1.7368    2.9568   -0.0729 Cl  0  0  0  0  0  0  0  0  0  0  0  0
    0.9596    2.1028   -0.1406 H   0  0  0  0  0  0  0  0  0  0  0  0
  1  2  1  0
  2  3  2  0
  2  4  1  0
  4  5  2  0
  5  6  1  0
  6  7  2  0
  7  8  1  0
  7  9  1  0
  9 10  2  0
 10 11  1  0
  9 12  1  0
  6 13  1  0
 10  4  1  0
  5 14  1  0
M  CHG  2   1  -1   2   1
M  END
