
     RDKit          3D

 18 17  0  0  0  0  0  0  0  0999 V2000
   -3.0644   -0.4365    0.5446 C   0  0  0  0  0  0  0  0  0  0  0  0
   -1.6864   -0.1613   -0.0495 C   0  0  0  0  0  0  0  0  0  0  0  0
   -0.8480    0.7201    0.8803 C   0  0  0  0  0  0  0  0  0  0  0  0
    0.4180    1.0081    0.2894 O   0  0  0  0  0  0  0  0  0  0  0  0
    1.4683    0.0858    0.2286 C   0  0  0  0  0  0  0  0  0  0  0  0
    1.3503   -1.0563    0.7532 O   0  0  0  0  0  0  0  0  0  0  0  0
    2.7145    0.4738   -0.4504 C   0  0  0  0  0  0  0  0  0  0  0  0
    3.7610   -0.3438   -0.5516 C   0  0  0  0  0  0  0  0  0  0  0  0
   -3.6474   -1.0772   -0.1501 H   0  0  0  0  0  0  0  0  0  0  0  0
   -3.6163    0.5154    0.6973 H   0  0  0  0  0  0  0  0  0  0  0  0
   -2.9664   -0.9643    1.5172 H   0  0  0  0  0  0  0  0  0  0  0  0
   -1.1685   -1.1292   -0.2202 H   0  0  0  0  0  0  0  0  0  0  0  0
   -1.8076    0.3484   -1.0298 H   0  0  0  0  0  0  0  0  0  0  0  0
   -1.3792    1.6811    1.0488 H   0  0  0  0  0  0  0  0  0  0  0  0
   -0.7062    0.2273    1.8674 H   0  0  0  0  0  0  0  0  0  0  0  0
    2.7801    1.4636   -0.8847 H   0  0  0  0  0  0  0  0  0  0  0  0
    4.6563   -0.0126   -1.0614 H   0  0  0  0  0  0  0  0  0  0  0  0
    3.7420   -1.3425   -0.1338 H   0  0  0  0  0  0  0  0  0  0  0  0
  1  2  1  0
  2  3  1  0
  3  4  1  0
  4  5  1  0
  5  6  2  0
  5  7  1  0
  7  8  2  3
  1  9  1  0
  1 10  1  0
  1 11  1  0
  2 12  1  0
  2 13  1  0
  3 14  1  0
  3 15  1  0
  7 16  1  0
  8 17  1  0
  8 18  1  0
M  END
