
     RDKit          3D

 10 10  0  0  0  0  0  0  0  0999 V2000
    3.4912   -0.2432   -0.3682 N   0  0  0  0  0  0  0  0  0  0  0  0
    2.3412   -0.2528   -0.2403 C   0  0  0  0  0  0  0  0  0  0  0  0
    0.9140   -0.2646   -0.0816 C   0  0  0  0  0  0  0  0  0  0  0  0
    0.0925    0.8521   -0.0733 C   0  0  0  0  0  0  0  0  0  0  0  0
   -1.2595    0.5319    0.1000 C   0  0  0  0  0  0  0  0  0  0  0  0
   -1.4976   -0.8316    0.2272 C   0  0  0  0  0  0  0  0  0  0  0  0
   -0.0253   -1.6408    0.1242 S   0  0  0  0  0  0  0  0  0  0  0  0
    0.4542    1.8658   -0.1884 H   0  0  0  0  0  0  0  0  0  0  0  0
   -2.0448    1.2753    0.1319 H   0  0  0  0  0  0  0  0  0  0  0  0
   -2.4660   -1.2920    0.3684 H   0  0  0  0  0  0  0  0  0  0  0  0
  1  2  3  0
  2  3  1  0
  3  4  2  0
  4  5  1  0
  5  6  2  0
  6  7  1  0
  7  3  1  0
  4  8  1  0
  5  9  1  0
  6 10  1  0
M  END
