
     RDKit          3D

 23 23  0  0  0  0  0  0  0  0999 V2000
    3.5121   -0.3322   -0.4814 C   0  0  0  0  0  0  0  0  0  0  0  0
    2.7731   -0.6005    0.8300 C   0  0  0  0  0  0  0  0  0  0  0  0
    1.2769   -0.3845    0.7687 C   0  0  0  0  0  0  0  0  0  0  0  0
    0.6306   -0.5834    1.7878 O   0  0  0  0  0  0  0  0  0  0  0  0
    0.5709    0.0628   -0.4963 C   0  0  0  0  0  0  0  0  0  0  0  0
   -0.9189    0.2083   -0.3086 C   0  0  0  0  0  0  0  0  0  0  0  0
   -1.7704   -0.8898   -0.5171 C   0  0  0  0  0  0  0  0  0  0  0  0
   -3.1477   -0.7618   -0.3115 C   0  0  0  0  0  0  0  0  0  0  0  0
   -3.6825    0.4581    0.1121 C   0  0  0  0  0  0  0  0  0  0  0  0
   -2.8404    1.5510    0.3348 C   0  0  0  0  0  0  0  0  0  0  0  0
   -1.4625    1.4275    0.1304 C   0  0  0  0  0  0  0  0  0  0  0  0
    4.5973   -0.5172   -0.3357 H   0  0  0  0  0  0  0  0  0  0  0  0
    3.1493   -1.0122   -1.2806 H   0  0  0  0  0  0  0  0  0  0  0  0
    3.3802    0.7245   -0.7953 H   0  0  0  0  0  0  0  0  0  0  0  0
    3.1948    0.0644    1.6143 H   0  0  0  0  0  0  0  0  0  0  0  0
    2.9667   -1.6515    1.1348 H   0  0  0  0  0  0  0  0  0  0  0  0
    0.7669   -0.6746   -1.3039 H   0  0  0  0  0  0  0  0  0  0  0  0
    0.9942    1.0357   -0.8260 H   0  0  0  0  0  0  0  0  0  0  0  0
   -1.3675   -1.8430   -0.8364 H   0  0  0  0  0  0  0  0  0  0  0  0
   -3.8001   -1.6093   -0.4772 H   0  0  0  0  0  0  0  0  0  0  0  0
   -4.7485    0.5551    0.2721 H   0  0  0  0  0  0  0  0  0  0  0  0
   -3.2549    2.4933    0.6692 H   0  0  0  0  0  0  0  0  0  0  0  0
   -0.8197    2.2792    0.3155 H   0  0  0  0  0  0  0  0  0  0  0  0
  1  2  1  0
  2  3  1  0
  3  4  2  0
  3  5  1  0
  5  6  1  0
  6  7  2  0
  7  8  1  0
  8  9  2  0
  9 10  1  0
 10 11  2  0
 11  6  1  0
  1 12  1  0
  1 13  1  0
  1 14  1  0
  2 15  1  0
  2 16  1  0
  5 17  1  0
  5 18  1  0
  7 19  1  0
  8 20  1  0
  9 21  1  0
 10 22  1  0
 11 23  1  0
M  END
