
     RDKit          3D

 26 26  0  0  0  0  0  0  0  0999 V2000
   -3.9413    0.9576   -0.2253 C   0  0  0  0  0  0  0  0  0  0  0  0
   -3.0532   -0.2294    0.1359 C   0  0  0  0  0  0  0  0  0  0  0  0
   -1.6959   -0.1408   -0.5706 C   0  0  0  0  0  0  0  0  0  0  0  0
   -0.8092   -1.3378   -0.2087 C   0  0  0  0  0  0  0  0  0  0  0  0
    0.5329   -1.2321   -0.8828 C   0  0  0  0  0  0  0  0  0  0  0  0
    0.6812   -1.8108   -1.9939 O   0  0  0  0  0  0  0  0  0  0  0  0
    1.6656   -0.4517   -0.3081 C   0  0  0  0  0  0  0  0  0  0  0  0
    1.5141    0.3330    0.8548 C   0  0  0  0  0  0  0  0  0  0  0  0
    2.5943    1.0563    1.3699 C   0  0  0  0  0  0  0  0  0  0  0  0
    3.8369    1.0096    0.7365 C   0  0  0  0  0  0  0  0  0  0  0  0
    4.0029    0.2399   -0.4155 C   0  0  0  0  0  0  0  0  0  0  0  0
    2.9271   -0.4854   -0.9363 C   0  0  0  0  0  0  0  0  0  0  0  0
   -4.9154    0.8664    0.2999 H   0  0  0  0  0  0  0  0  0  0  0  0
   -3.4586    1.9090    0.0844 H   0  0  0  0  0  0  0  0  0  0  0  0
   -4.1288    0.9803   -1.3200 H   0  0  0  0  0  0  0  0  0  0  0  0
   -2.9018   -0.2428    1.2374 H   0  0  0  0  0  0  0  0  0  0  0  0
   -3.5698   -1.1684   -0.1603 H   0  0  0  0  0  0  0  0  0  0  0  0
   -1.1906    0.8047   -0.2759 H   0  0  0  0  0  0  0  0  0  0  0  0
   -1.8539   -0.1233   -1.6718 H   0  0  0  0  0  0  0  0  0  0  0  0
   -0.6846   -1.4196    0.8917 H   0  0  0  0  0  0  0  0  0  0  0  0
   -1.3089   -2.2738   -0.5429 H   0  0  0  0  0  0  0  0  0  0  0  0
    0.5671    0.4029    1.3702 H   0  0  0  0  0  0  0  0  0  0  0  0
    2.4664    1.6561    2.2619 H   0  0  0  0  0  0  0  0  0  0  0  0
    4.6709    1.5707    1.1378 H   0  0  0  0  0  0  0  0  0  0  0  0
    4.9668    0.2045   -0.9066 H   0  0  0  0  0  0  0  0  0  0  0  0
    3.0859   -1.0753   -1.8303 H   0  0  0  0  0  0  0  0  0  0  0  0
  1  2  1  0
  2  3  1  0
  3  4  1  0
  4  5  1  0
  5  6  2  0
  5  7  1  0
  7  8  2  0
  8  9  1  0
  9 10  2  0
 10 11  1  0
 11 12  2  0
 12  7  1  0
  1 13  1  0
  1 14  1  0
  1 15  1  0
  2 16  1  0
  2 17  1  0
  3 18  1  0
  3 19  1  0
  4 20  1  0
  4 21  1  0
  8 22  1  0
  9 23  1  0
 10 24  1  0
 11 25  1  0
 12 26  1  0
M  END
