
     RDKit          3D

 20 19  0  0  0  0  0  0  0  0999 V2000
   -2.7196    0.4303    0.3059 C   0  0  0  0  0  0  0  0  0  0  0  0
   -1.9091   -0.6776   -0.3664 C   0  0  0  0  0  0  0  0  0  0  0  0
   -0.4628   -0.2562   -0.6676 C   0  0  0  0  0  0  0  0  0  0  0  0
    0.3915   -0.1284    0.6018 C   0  0  0  0  0  0  0  0  0  0  0  0
    1.8277    0.1614    0.2470 C   0  0  0  0  0  0  0  0  0  0  0  0
    2.2316    1.4259    0.0766 C   0  0  0  0  0  0  0  0  0  0  0  0
    2.7526   -0.9697    0.0293 C   0  0  0  0  0  0  0  0  0  0  0  0
    3.9600   -0.7809   -0.2781 O   0  0  0  0  0  0  0  0  0  0  0  0
   -2.6779    1.3629   -0.2960 H   0  0  0  0  0  0  0  0  0  0  0  0
   -2.3386    0.6318    1.3282 H   0  0  0  0  0  0  0  0  0  0  0  0
   -3.7801    0.1118    0.3898 H   0  0  0  0  0  0  0  0  0  0  0  0
   -2.4056   -0.9375   -1.3264 H   0  0  0  0  0  0  0  0  0  0  0  0
   -1.9182   -1.5870    0.2729 H   0  0  0  0  0  0  0  0  0  0  0  0
   -0.0107   -1.0292   -1.3275 H   0  0  0  0  0  0  0  0  0  0  0  0
   -0.4593    0.7062   -1.2254 H   0  0  0  0  0  0  0  0  0  0  0  0
    0.3374   -1.0730    1.1862 H   0  0  0  0  0  0  0  0  0  0  0  0
   -0.0047    0.6823    1.2506 H   0  0  0  0  0  0  0  0  0  0  0  0
    3.2515    1.6608   -0.2006 H   0  0  0  0  0  0  0  0  0  0  0  0
    1.5423    2.2507    0.2095 H   0  0  0  0  0  0  0  0  0  0  0  0
    2.3919   -1.9847    0.1340 H   0  0  0  0  0  0  0  0  0  0  0  0
  1  2  1  0
  2  3  1  0
  3  4  1  0
  4  5  1  0
  5  6  2  3
  5  7  1  0
  7  8  2  0
  1  9  1  0
  1 10  1  0
  1 11  1  0
  2 12  1  0
  2 13  1  0
  3 14  1  0
  3 15  1  0
  4 16  1  0
  4 17  1  0
  6 18  1  0
  6 19  1  0
  7 20  1  0
M  END
