
     RDKit          3D

 26 25  0  0  0  0  0  0  0  0999 V2000
   -4.9427    0.8515   -0.8408 N   0  0  0  0  0  0  0  0  0  0  0  0
   -3.5603    0.8512   -0.5968 N   0  0  0  0  0  0  0  0  0  0  0  0
   -2.9767   -0.0988    0.3008 C   0  0  0  0  0  0  0  0  0  0  0  0
   -3.6971   -0.9805    0.8438 O   0  0  0  0  0  0  0  0  0  0  0  0
   -1.4997   -0.0883    0.5563 C   0  0  0  0  0  0  0  0  0  0  0  0
   -0.7562   -0.8149   -0.5725 C   0  0  0  0  0  0  0  0  0  0  0  0
    0.7500   -0.9491   -0.2978 C   0  0  0  0  0  0  0  0  0  0  0  0
    1.4930    0.3886   -0.4119 C   0  0  0  0  0  0  0  0  0  0  0  0
    2.9694    0.1796   -0.2548 C   0  0  0  0  0  0  0  0  0  0  0  0
    3.6968    0.0702   -1.2790 O   0  0  0  0  0  0  0  0  0  0  0  0
    3.5458    0.0593    1.0489 N   0  0  0  0  0  0  0  0  0  0  0  0
    4.9326   -0.0824    1.2028 N   0  0  0  0  0  0  0  0  0  0  0  0
   -5.1543    1.6589   -1.4709 H   0  0  0  0  0  0  0  0  0  0  0  0
   -5.1591   -0.0144   -1.3857 H   0  0  0  0  0  0  0  0  0  0  0  0
   -2.9516    1.5699   -1.0531 H   0  0  0  0  0  0  0  0  0  0  0  0
   -1.1578    0.9661    0.6293 H   0  0  0  0  0  0  0  0  0  0  0  0
   -1.2905   -0.5871    1.5286 H   0  0  0  0  0  0  0  0  0  0  0  0
   -0.9180   -0.2853   -1.5374 H   0  0  0  0  0  0  0  0  0  0  0  0
   -1.1779   -1.8392   -0.6756 H   0  0  0  0  0  0  0  0  0  0  0  0
    0.9116   -1.3888    0.7116 H   0  0  0  0  0  0  0  0  0  0  0  0
    1.1727   -1.6572   -1.0448 H   0  0  0  0  0  0  0  0  0  0  0  0
    1.1474    1.0915    0.3749 H   0  0  0  0  0  0  0  0  0  0  0  0
    1.2884    0.8510   -1.4027 H   0  0  0  0  0  0  0  0  0  0  0  0
    2.9449    0.1919    1.8948 H   0  0  0  0  0  0  0  0  0  0  0  0
    5.2990    0.8352    1.5458 H   0  0  0  0  0  0  0  0  0  0  0  0
    5.0903   -0.7789    1.9673 H   0  0  0  0  0  0  0  0  0  0  0  0
  1  2  1  0
  2  3  1  0
  3  4  2  0
  3  5  1  0
  5  6  1  0
  6  7  1  0
  7  8  1  0
  8  9  1  0
  9 10  2  0
  9 11  1  0
 11 12  1  0
  1 13  1  0
  1 14  1  0
  2 15  1  0
  5 16  1  0
  5 17  1  0
  6 18  1  0
  6 19  1  0
  7 20  1  0
  7 21  1  0
  8 22  1  0
  8 23  1  0
 11 24  1  0
 12 25  1  0
 12 26  1  0
M  END
