
     RDKit          3D

 15 15  0  0  0  0  0  0  0  0999 V2000
    2.3575   -0.3774   -0.2247 C   0  0  0  0  0  0  0  0  0  0  0  0
    1.3103    0.6725   -0.0251 C   0  0  0  0  0  0  0  0  0  0  0  0
    1.6583    1.8790    0.0846 O   0  0  0  0  0  0  0  0  0  0  0  0
   -0.1188    0.3148    0.0448 C   0  0  0  0  0  0  0  0  0  0  0  0
   -1.1594    1.2074    0.2261 C   0  0  0  0  0  0  0  0  0  0  0  0
   -2.3176    0.4560    0.2305 C   0  0  0  0  0  0  0  0  0  0  0  0
   -1.9359   -0.8586    0.0523 C   0  0  0  0  0  0  0  0  0  0  0  0
   -0.5980   -0.9407   -0.0603 N   0  0  0  0  0  0  0  0  0  0  0  0
    2.1809   -0.9049   -1.1854 H   0  0  0  0  0  0  0  0  0  0  0  0
    3.3691    0.0806   -0.2510 H   0  0  0  0  0  0  0  0  0  0  0  0
    2.3196   -1.1081    0.6102 H   0  0  0  0  0  0  0  0  0  0  0  0
   -1.0873    2.2810    0.3421 H   0  0  0  0  0  0  0  0  0  0  0  0
   -3.3272    0.8254    0.3503 H   0  0  0  0  0  0  0  0  0  0  0  0
   -2.6027   -1.7097    0.0075 H   0  0  0  0  0  0  0  0  0  0  0  0
   -0.0486   -1.8172   -0.2019 H   0  0  0  0  0  0  0  0  0  0  0  0
  1  2  1  0
  2  3  2  0
  2  4  1  0
  4  5  2  0
  5  6  1  0
  6  7  2  0
  7  8  1  0
  8  4  1  0
  1  9  1  0
  1 10  1  0
  1 11  1  0
  5 12  1  0
  6 13  1  0
  7 14  1  0
  8 15  1  0
M  END
