
     RDKit          3D

 20 19  0  0  0  0  0  0  0  0999 V2000
    2.3506    0.8250   -0.5220 C   0  0  0  0  0  0  0  0  0  0  0  0
    2.1155   -0.6828   -0.6071 C   0  0  0  0  0  0  0  0  0  0  0  0
    1.0760   -1.1685    0.4105 C   0  0  0  0  0  0  0  0  0  0  0  0
   -0.3030   -0.6796    0.0655 C   0  0  0  0  0  0  0  0  0  0  0  0
   -0.8925    0.3022    0.7586 C   0  0  0  0  0  0  0  0  0  0  0  0
   -2.2304    0.8353    0.4311 C   0  0  0  0  0  0  0  0  0  0  0  0
   -3.0453    0.3148   -0.7148 C   0  0  0  0  0  0  0  0  0  0  0  0
   -2.7010    1.7632    1.1416 O   0  0  0  0  0  0  0  0  0  0  0  0
    3.1544    1.1150   -1.2310 H   0  0  0  0  0  0  0  0  0  0  0  0
    1.4277    1.3798   -0.7927 H   0  0  0  0  0  0  0  0  0  0  0  0
    2.6635    1.1103    0.5049 H   0  0  0  0  0  0  0  0  0  0  0  0
    3.0780   -1.2014   -0.4064 H   0  0  0  0  0  0  0  0  0  0  0  0
    1.7945   -0.9515   -1.6374 H   0  0  0  0  0  0  0  0  0  0  0  0
    1.0596   -2.2792    0.3978 H   0  0  0  0  0  0  0  0  0  0  0  0
    1.3739   -0.8582    1.4366 H   0  0  0  0  0  0  0  0  0  0  0  0
   -0.7890   -1.1178   -0.7967 H   0  0  0  0  0  0  0  0  0  0  0  0
   -0.3710    0.7412    1.6013 H   0  0  0  0  0  0  0  0  0  0  0  0
   -2.4973    0.4704   -1.6676 H   0  0  0  0  0  0  0  0  0  0  0  0
   -3.2471   -0.7675   -0.5728 H   0  0  0  0  0  0  0  0  0  0  0  0
   -4.0172    0.8494   -0.7758 H   0  0  0  0  0  0  0  0  0  0  0  0
  1  2  1  0
  2  3  1  0
  3  4  1  0
  4  5  2  0
  5  6  1  0
  6  7  1  0
  6  8  2  0
  1  9  1  0
  1 10  1  0
  1 11  1  0
  2 12  1  0
  2 13  1  0
  3 14  1  0
  3 15  1  0
  4 16  1  0
  5 17  1  0
  7 18  1  0
  7 19  1  0
  7 20  1  0
M  END
