
     RDKit          3D

 15 15  0  0  0  0  0  0  0  0999 V2000
    2.2021    0.1653   -0.1044 C   0  0  0  0  0  0  0  0  0  0  0  0
    0.7170    0.0363    0.0199 C   0  0  0  0  0  0  0  0  0  0  0  0
    0.0576   -1.1083    0.0461 C   0  0  0  0  0  0  0  0  0  0  0  0
   -1.4275   -0.9048    0.0868 C   0  0  0  0  0  0  0  0  0  0  0  0
   -1.6210    0.6211    0.0520 C   0  0  0  0  0  0  0  0  0  0  0  0
   -0.2281    1.1295    0.0001 C   0  0  0  0  0  0  0  0  0  0  0  0
    0.0846    2.3479   -0.0595 O   0  0  0  0  0  0  0  0  0  0  0  0
    2.7084   -0.6844    0.4010 H   0  0  0  0  0  0  0  0  0  0  0  0
    2.5429    1.1104    0.3677 H   0  0  0  0  0  0  0  0  0  0  0  0
    2.4841    0.1724   -1.1778 H   0  0  0  0  0  0  0  0  0  0  0  0
    0.5345   -2.0801    0.0279 H   0  0  0  0  0  0  0  0  0  0  0  0
   -1.8999   -1.3844   -0.7971 H   0  0  0  0  0  0  0  0  0  0  0  0
   -1.8438   -1.3370    1.0219 H   0  0  0  0  0  0  0  0  0  0  0  0
   -2.1303    0.9823    0.9711 H   0  0  0  0  0  0  0  0  0  0  0  0
   -2.1805    0.9339   -0.8557 H   0  0  0  0  0  0  0  0  0  0  0  0
  1  2  1  0
  2  3  2  0
  3  4  1  0
  4  5  1  0
  5  6  1  0
  6  7  2  0
  6  2  1  0
  1  8  1  0
  1  9  1  0
  1 10  1  0
  3 11  1  0
  4 12  1  0
  4 13  1  0
  5 14  1  0
  5 15  1  0
M  END
