
     RDKit          3D

 18 18  0  0  0  0  0  0  0  0999 V2000
    3.0151   -0.2978   -0.2478 C   0  0  0  0  0  0  0  0  0  0  0  0
    1.8852   -0.5682    0.7003 C   0  0  0  0  0  0  0  0  0  0  0  0
    2.1511   -1.1009    1.8122 O   0  0  0  0  0  0  0  0  0  0  0  0
    0.4768   -0.2268    0.3632 C   0  0  0  0  0  0  0  0  0  0  0  0
    0.1414    0.3691   -0.8693 C   0  0  0  0  0  0  0  0  0  0  0  0
   -1.1878    0.6832   -1.1693 C   0  0  0  0  0  0  0  0  0  0  0  0
   -2.2015    0.4080   -0.2457 C   0  0  0  0  0  0  0  0  0  0  0  0
   -1.8820   -0.1831    0.9808 C   0  0  0  0  0  0  0  0  0  0  0  0
   -0.5540   -0.4985    1.2840 C   0  0  0  0  0  0  0  0  0  0  0  0
   -3.5692    0.7322   -0.5566 C   0  0  0  0  0  0  0  0  0  0  0  0
   -4.6687    0.9928   -0.8066 N   0  0  0  0  0  0  0  0  0  0  0  0
    3.0775    0.7901   -0.4594 H   0  0  0  0  0  0  0  0  0  0  0  0
    3.9808   -0.6255    0.1929 H   0  0  0  0  0  0  0  0  0  0  0  0
    2.8546   -0.8552   -1.1943 H   0  0  0  0  0  0  0  0  0  0  0  0
    0.8996    0.5958   -1.6067 H   0  0  0  0  0  0  0  0  0  0  0  0
   -1.4243    1.1410   -2.1224 H   0  0  0  0  0  0  0  0  0  0  0  0
   -2.6592   -0.4007    1.7038 H   0  0  0  0  0  0  0  0  0  0  0  0
   -0.3357   -0.9555    2.2410 H   0  0  0  0  0  0  0  0  0  0  0  0
  1  2  1  0
  2  3  2  0
  2  4  1  0
  4  5  2  0
  5  6  1  0
  6  7  2  0
  7  8  1  0
  8  9  2  0
  7 10  1  0
 10 11  3  0
  9  4  1  0
  1 12  1  0
  1 13  1  0
  1 14  1  0
  5 15  1  0
  6 16  1  0
  8 17  1  0
  9 18  1  0
M  END
