
     RDKit          3D

 26 28  0  0  0  0  0  0  0  0999 V2000
    2.5887   -2.1998    0.3636 C   0  0  0  0  0  0  0  0  0  0  0  0
    2.2875   -1.0857   -0.2990 C   0  0  0  0  0  0  0  0  0  0  0  0
    1.0081   -0.4449   -0.1631 N   0  0  0  0  0  0  0  0  0  0  0  0
   -0.2315   -1.0043   -0.1779 C   0  0  0  0  0  0  0  0  0  0  0  0
   -0.5769   -2.3463   -0.3795 C   0  0  0  0  0  0  0  0  0  0  0  0
   -1.9419   -2.6869   -0.3873 C   0  0  0  0  0  0  0  0  0  0  0  0
   -2.9315   -1.6955   -0.2152 C   0  0  0  0  0  0  0  0  0  0  0  0
   -2.5692   -0.3487   -0.0446 C   0  0  0  0  0  0  0  0  0  0  0  0
   -1.2107   -0.0381   -0.0366 C   0  0  0  0  0  0  0  0  0  0  0  0
   -0.5563    1.1689    0.0563 C   0  0  0  0  0  0  0  0  0  0  0  0
   -1.0349    2.4704    0.1972 C   0  0  0  0  0  0  0  0  0  0  0  0
   -0.0920    3.5114    0.2552 C   0  0  0  0  0  0  0  0  0  0  0  0
    1.2897    3.2327    0.1710 C   0  0  0  0  0  0  0  0  0  0  0  0
    1.7457    1.9096    0.0257 C   0  0  0  0  0  0  0  0  0  0  0  0
    0.7926    0.8877   -0.0343 C   0  0  0  0  0  0  0  0  0  0  0  0
    1.8765   -2.6658    1.0313 H   0  0  0  0  0  0  0  0  0  0  0  0
    3.5751   -2.6348    0.2691 H   0  0  0  0  0  0  0  0  0  0  0  0
    3.0618   -0.6037   -0.8827 H   0  0  0  0  0  0  0  0  0  0  0  0
    0.1699   -3.1092   -0.5471 H   0  0  0  0  0  0  0  0  0  0  0  0
   -2.2361   -3.7176   -0.5368 H   0  0  0  0  0  0  0  0  0  0  0  0
   -3.9776   -1.9724   -0.2286 H   0  0  0  0  0  0  0  0  0  0  0  0
   -3.3233    0.4197    0.0659 H   0  0  0  0  0  0  0  0  0  0  0  0
   -2.0954    2.6767    0.2610 H   0  0  0  0  0  0  0  0  0  0  0  0
   -0.4280    4.5342    0.3659 H   0  0  0  0  0  0  0  0  0  0  0  0
    2.0046    4.0438    0.2194 H   0  0  0  0  0  0  0  0  0  0  0  0
    2.8050    1.6985   -0.0342 H   0  0  0  0  0  0  0  0  0  0  0  0
  1  2  2  3
  2  3  1  0
  3  4  1  0
  4  5  2  0
  5  6  1  0
  6  7  2  0
  7  8  1  0
  8  9  2  0
  9 10  1  0
 10 11  2  0
 11 12  1  0
 12 13  2  0
 13 14  1  0
 14 15  2  0
 15  3  1  0
  9  4  1  0
 15 10  1  0
  1 16  1  0
  1 17  1  0
  2 18  1  0
  5 19  1  0
  6 20  1  0
  7 21  1  0
  8 22  1  0
 11 23  1  0
 12 24  1  0
 13 25  1  0
 14 26  1  0
M  END
