
     RDKit          3D

 17 17  0  0  0  0  0  0  0  0999 V2000
    2.8095    0.5164   -0.5302 C   0  0  0  0  0  0  0  0  0  0  0  0
    1.9498   -0.6118   -0.4054 O   0  0  0  0  0  0  0  0  0  0  0  0
    0.5863   -0.5373   -0.0838 C   0  0  0  0  0  0  0  0  0  0  0  0
   -0.1414   -1.7306    0.0060 C   0  0  0  0  0  0  0  0  0  0  0  0
   -1.5023   -1.7095    0.3235 C   0  0  0  0  0  0  0  0  0  0  0  0
   -2.1495   -0.4933    0.5546 C   0  0  0  0  0  0  0  0  0  0  0  0
   -1.4350    0.7076    0.4684 C   0  0  0  0  0  0  0  0  0  0  0  0
   -0.0699    0.6881    0.1501 C   0  0  0  0  0  0  0  0  0  0  0  0
   -2.1024    1.9608    0.7067 C   0  0  0  0  0  0  0  0  0  0  0  0
   -2.6388    2.9682    0.8983 N   0  0  0  0  0  0  0  0  0  0  0  0
    2.8571    1.0685    0.4322 H   0  0  0  0  0  0  0  0  0  0  0  0
    3.8298    0.1677   -0.7903 H   0  0  0  0  0  0  0  0  0  0  0  0
    2.4459    1.1861   -1.3380 H   0  0  0  0  0  0  0  0  0  0  0  0
    0.3511   -2.6784   -0.1714 H   0  0  0  0  0  0  0  0  0  0  0  0
   -2.0558   -2.6372    0.3904 H   0  0  0  0  0  0  0  0  0  0  0  0
   -3.2048   -0.4890    0.8000 H   0  0  0  0  0  0  0  0  0  0  0  0
    0.4707    1.6237    0.0867 H   0  0  0  0  0  0  0  0  0  0  0  0
  1  2  1  0
  2  3  1  0
  3  4  2  0
  4  5  1  0
  5  6  2  0
  6  7  1  0
  7  8  2  0
  7  9  1  0
  9 10  3  0
  8  3  1  0
  1 11  1  0
  1 12  1  0
  1 13  1  0
  4 14  1  0
  5 15  1  0
  6 16  1  0
  8 17  1  0
M  END
