
     RDKit          3D

 16 16  0  0  0  0  0  0  0  0999 V2000
   -1.7093   -1.4288   -0.1025 C   0  0  0  0  0  0  0  0  0  0  0  0
   -0.4808   -0.5663   -0.0389 C   0  0  0  0  0  0  0  0  0  0  0  0
   -0.6012    0.8338    0.0459 C   0  0  0  0  0  0  0  0  0  0  0  0
   -1.8634    1.4269    0.0713 O   0  0  0  0  0  0  0  0  0  0  0  0
    0.5511    1.6312    0.1048 C   0  0  0  0  0  0  0  0  0  0  0  0
    1.8174    1.0420    0.0797 C   0  0  0  0  0  0  0  0  0  0  0  0
    1.9418   -0.3475   -0.0044 C   0  0  0  0  0  0  0  0  0  0  0  0
    0.7974   -1.1500   -0.0636 C   0  0  0  0  0  0  0  0  0  0  0  0
    3.5333   -1.0848   -0.0358 Cl  0  0  0  0  0  0  0  0  0  0  0  0
   -2.3087   -1.1600   -0.9977 H   0  0  0  0  0  0  0  0  0  0  0  0
   -1.4496   -2.5070   -0.1664 H   0  0  0  0  0  0  0  0  0  0  0  0
   -2.3244   -1.2707    0.8083 H   0  0  0  0  0  0  0  0  0  0  0  0
   -1.9764    2.4321    0.1320 H   0  0  0  0  0  0  0  0  0  0  0  0
    0.4655    2.7084    0.1702 H   0  0  0  0  0  0  0  0  0  0  0  0
    2.7008    1.6662    0.1257 H   0  0  0  0  0  0  0  0  0  0  0  0
    0.9064   -2.2257   -0.1286 H   0  0  0  0  0  0  0  0  0  0  0  0
  1  2  1  0
  2  3  2  0
  3  4  1  0
  3  5  1  0
  5  6  2  0
  6  7  1  0
  7  8  2  0
  7  9  1  0
  8  2  1  0
  1 10  1  0
  1 11  1  0
  1 12  1  0
  4 13  1  0
  5 14  1  0
  6 15  1  0
  8 16  1  0
M  END
