
     RDKit          3D

 15 15  0  0  0  0  0  0  0  0999 V2000
   -1.3293    1.8850    0.6332 O   0  0  0  0  0  0  0  0  0  0  0  0
   -0.3641    0.9509    0.2506 C   0  0  0  0  0  0  0  0  0  0  0  0
    0.9636    1.3898    0.1631 C   0  0  0  0  0  0  0  0  0  0  0  0
    1.9911    0.4940   -0.1359 C   0  0  0  0  0  0  0  0  0  0  0  0
    1.7013   -0.8525   -0.3515 C   0  0  0  0  0  0  0  0  0  0  0  0
    0.3809   -1.3027   -0.2903 C   0  0  0  0  0  0  0  0  0  0  0  0
   -0.6701   -0.4104   -0.0143 C   0  0  0  0  0  0  0  0  0  0  0  0
   -2.0477   -0.9459   -0.0463 C   0  0  0  0  0  0  0  0  0  0  0  0
   -3.0364   -0.2174   -0.3216 O   0  0  0  0  0  0  0  0  0  0  0  0
   -2.2704    1.6396    0.9057 H   0  0  0  0  0  0  0  0  0  0  0  0
    1.2022    2.4289    0.3522 H   0  0  0  0  0  0  0  0  0  0  0  0
    3.0144    0.8426   -0.1899 H   0  0  0  0  0  0  0  0  0  0  0  0
    2.4999   -1.5477   -0.5765 H   0  0  0  0  0  0  0  0  0  0  0  0
    0.1763   -2.3490   -0.4839 H   0  0  0  0  0  0  0  0  0  0  0  0
   -2.2117   -2.0053    0.1053 H   0  0  0  0  0  0  0  0  0  0  0  0
  1  2  1  0
  2  3  2  0
  3  4  1  0
  4  5  2  0
  5  6  1  0
  6  7  2  0
  7  8  1  0
  8  9  2  0
  7  2  1  0
  1 10  1  0
  3 11  1  0
  4 12  1  0
  5 13  1  0
  6 14  1  0
  8 15  1  0
M  END
