
     RDKit          3D

 24 23  0  0  0  0  0  0  0  0999 V2000
    3.7226    0.5053    0.4247 C   0  0  0  0  0  0  0  0  0  0  0  0
    2.3771   -0.2135    0.3801 C   0  0  0  0  0  0  0  0  0  0  0  0
    1.3952    0.5096   -0.5539 C   0  0  0  0  0  0  0  0  0  0  0  0
    0.0745   -0.2560   -0.7347 C   0  0  0  0  0  0  0  0  0  0  0  0
   -0.8204   -0.1936    0.5155 C   0  0  0  0  0  0  0  0  0  0  0  0
   -2.1515   -0.9447    0.3278 C   0  0  0  0  0  0  0  0  0  0  0  0
   -3.1624   -0.2084   -0.5608 C   0  0  0  0  0  0  0  0  0  0  0  0
   -3.7702    1.3111    0.2398 S   0  0  0  0  0  0  0  0  0  0  0  0
    4.1822    0.5286   -0.5864 H   0  0  0  0  0  0  0  0  0  0  0  0
    3.5920    1.5453    0.7927 H   0  0  0  0  0  0  0  0  0  0  0  0
    4.4085   -0.0317    1.1133 H   0  0  0  0  0  0  0  0  0  0  0  0
    2.5390   -1.2544    0.0248 H   0  0  0  0  0  0  0  0  0  0  0  0
    1.9677   -0.2513    1.4113 H   0  0  0  0  0  0  0  0  0  0  0  0
    1.8683    0.6165   -1.5549 H   0  0  0  0  0  0  0  0  0  0  0  0
    1.1889    1.5326   -0.1691 H   0  0  0  0  0  0  0  0  0  0  0  0
    0.2868   -1.3153   -0.9986 H   0  0  0  0  0  0  0  0  0  0  0  0
   -0.4605    0.2024   -1.5921 H   0  0  0  0  0  0  0  0  0  0  0  0
   -0.2887   -0.6718    1.3645 H   0  0  0  0  0  0  0  0  0  0  0  0
   -1.0097    0.8646    0.7958 H   0  0  0  0  0  0  0  0  0  0  0  0
   -1.9512   -1.9489   -0.1053 H   0  0  0  0  0  0  0  0  0  0  0  0
   -2.6134   -1.1096    1.3258 H   0  0  0  0  0  0  0  0  0  0  0  0
   -2.7237    0.0404   -1.5480 H   0  0  0  0  0  0  0  0  0  0  0  0
   -4.0327   -0.8754   -0.7378 H   0  0  0  0  0  0  0  0  0  0  0  0
   -4.6184    1.6185   -0.8410 H   0  0  0  0  0  0  0  0  0  0  0  0
  1  2  1  0
  2  3  1  0
  3  4  1  0
  4  5  1  0
  5  6  1  0
  6  7  1  0
  7  8  1  0
  1  9  1  0
  1 10  1  0
  1 11  1  0
  2 12  1  0
  2 13  1  0
  3 14  1  0
  3 15  1  0
  4 16  1  0
  4 17  1  0
  5 18  1  0
  5 19  1  0
  6 20  1  0
  6 21  1  0
  7 22  1  0
  7 23  1  0
  8 24  1  0
M  END
