
     RDKit          3D

 18 18  0  0  0  0  0  0  0  0999 V2000
    2.5909   -0.9322   -0.7075 C   0  0  0  0  0  0  0  0  0  0  0  0
    1.6631    0.1369   -0.5532 O   0  0  0  0  0  0  0  0  0  0  0  0
    0.3400   -0.0147   -0.1073 C   0  0  0  0  0  0  0  0  0  0  0  0
   -0.1901   -1.2761    0.2332 C   0  0  0  0  0  0  0  0  0  0  0  0
   -1.5109   -1.3924    0.6735 C   0  0  0  0  0  0  0  0  0  0  0  0
   -2.3163   -0.2582    0.7796 C   0  0  0  0  0  0  0  0  0  0  0  0
   -1.8037    0.9968    0.4456 C   0  0  0  0  0  0  0  0  0  0  0  0
   -0.4788    1.1277    0.0019 C   0  0  0  0  0  0  0  0  0  0  0  0
    0.0273    2.4244   -0.3356 N   0  0  0  0  0  0  0  0  0  0  0  0
    2.7633   -1.4322    0.2690 H   0  0  0  0  0  0  0  0  0  0  0  0
    3.5557   -0.5246   -1.0727 H   0  0  0  0  0  0  0  0  0  0  0  0
    2.2102   -1.6640   -1.4509 H   0  0  0  0  0  0  0  0  0  0  0  0
    0.4100   -2.1727    0.1610 H   0  0  0  0  0  0  0  0  0  0  0  0
   -1.9105   -2.3642    0.9331 H   0  0  0  0  0  0  0  0  0  0  0  0
   -3.3391   -0.3514    1.1211 H   0  0  0  0  0  0  0  0  0  0  0  0
   -2.4391    1.8693    0.5324 H   0  0  0  0  0  0  0  0  0  0  0  0
    1.0078    2.5569   -0.6687 H   0  0  0  0  0  0  0  0  0  0  0  0
   -0.5798    3.2704   -0.2544 H   0  0  0  0  0  0  0  0  0  0  0  0
  1  2  1  0
  2  3  1  0
  3  4  2  0
  4  5  1  0
  5  6  2  0
  6  7  1  0
  7  8  2  0
  8  9  1  0
  8  3  1  0
  1 10  1  0
  1 11  1  0
  1 12  1  0
  4 13  1  0
  5 14  1  0
  6 15  1  0
  7 16  1  0
  9 17  1  0
  9 18  1  0
M  END
