
     RDKit          3D

 25 26  0  0  0  0  0  0  0  0999 V2000
   -5.6998   -0.3771   -0.5218 O   0  0  0  0  0  0  0  0  0  0  0  0
   -4.3264   -0.1697   -0.4149 C   0  0  0  0  0  0  0  0  0  0  0  0
   -3.4656   -1.2693   -0.3372 C   0  0  0  0  0  0  0  0  0  0  0  0
   -2.0846   -1.0762   -0.2296 C   0  0  0  0  0  0  0  0  0  0  0  0
   -1.5528    0.2264   -0.1989 C   0  0  0  0  0  0  0  0  0  0  0  0
   -2.4193    1.3240   -0.2771 C   0  0  0  0  0  0  0  0  0  0  0  0
   -3.7998    1.1288   -0.3846 C   0  0  0  0  0  0  0  0  0  0  0  0
   -0.1439    0.4615   -0.0895 N   0  0  0  0  0  0  0  0  0  0  0  0
    0.6979   -0.4901   -0.0145 N   0  0  0  0  0  0  0  0  0  0  0  0
    2.1067   -0.2550    0.0949 C   0  0  0  0  0  0  0  0  0  0  0  0
    2.6386    1.0482    0.1256 C   0  0  0  0  0  0  0  0  0  0  0  0
    4.0199    1.2406    0.2332 C   0  0  0  0  0  0  0  0  0  0  0  0
    4.8769    0.1393    0.3107 C   0  0  0  0  0  0  0  0  0  0  0  0
    4.3542   -1.1565    0.2807 C   0  0  0  0  0  0  0  0  0  0  0  0
    2.9737   -1.3529    0.1732 C   0  0  0  0  0  0  0  0  0  0  0  0
   -6.3493    0.3986   -0.5800 H   0  0  0  0  0  0  0  0  0  0  0  0
   -3.8672   -2.2744   -0.3602 H   0  0  0  0  0  0  0  0  0  0  0  0
   -1.4363   -1.9410   -0.1707 H   0  0  0  0  0  0  0  0  0  0  0  0
   -2.0226    2.3314   -0.2545 H   0  0  0  0  0  0  0  0  0  0  0  0
   -4.4582    1.9860   -0.4442 H   0  0  0  0  0  0  0  0  0  0  0  0
    1.9905    1.9131    0.0667 H   0  0  0  0  0  0  0  0  0  0  0  0
    4.4258    2.2437    0.2566 H   0  0  0  0  0  0  0  0  0  0  0  0
    5.9455    0.2900    0.3940 H   0  0  0  0  0  0  0  0  0  0  0  0
    5.0185   -2.0089    0.3407 H   0  0  0  0  0  0  0  0  0  0  0  0
    2.5775   -2.3605    0.1506 H   0  0  0  0  0  0  0  0  0  0  0  0
  1  2  1  0
  2  3  2  0
  3  4  1  0
  4  5  2  0
  5  6  1  0
  6  7  2  0
  5  8  1  0
  8  9  2  3
  9 10  1  0
 10 11  2  0
 11 12  1  0
 12 13  2  0
 13 14  1  0
 14 15  2  0
  7  2  1  0
 15 10  1  0
  1 16  1  0
  3 17  1  0
  4 18  1  0
  6 19  1  0
  7 20  1  0
 11 21  1  0
 12 22  1  0
 13 23  1  0
 14 24  1  0
 15 25  1  0
M  END
