
     RDKit          3D

 14 14  0  0  0  0  0  0  0  0999 V2000
   -2.6527    0.8906   -0.0591 O   0  0  0  0  0  0  0  0  0  0  0  0
   -1.3256    0.4581   -0.0310 C   0  0  0  0  0  0  0  0  0  0  0  0
   -0.9979   -0.9054    0.1196 C   0  0  0  0  0  0  0  0  0  0  0  0
   -2.3434   -2.2586    0.2961 Br  0  0  0  0  0  0  0  0  0  0  0  0
    0.3450   -1.3008    0.1432 C   0  0  0  0  0  0  0  0  0  0  0  0
    1.3643   -0.3504    0.0181 C   0  0  0  0  0  0  0  0  0  0  0  0
    1.0408    1.0023   -0.1314 C   0  0  0  0  0  0  0  0  0  0  0  0
   -0.2980    1.4066   -0.1560 C   0  0  0  0  0  0  0  0  0  0  0  0
   -0.7069    3.2649   -0.3620 Br  0  0  0  0  0  0  0  0  0  0  0  0
    2.7431   -0.7637    0.0431 C   0  0  0  0  0  0  0  0  0  0  0  0
    3.8514   -1.0960    0.0632 N   0  0  0  0  0  0  0  0  0  0  0  0
   -3.4388    0.2595    0.0258 H   0  0  0  0  0  0  0  0  0  0  0  0
    0.5925   -2.3494    0.2591 H   0  0  0  0  0  0  0  0  0  0  0  0
    1.8262    1.7425   -0.2287 H   0  0  0  0  0  0  0  0  0  0  0  0
  1  2  1  0
  2  3  2  0
  3  4  1  0
  3  5  1  0
  5  6  2  0
  6  7  1  0
  7  8  2  0
  8  9  1  0
  6 10  1  0
 10 11  3  0
  8  2  1  0
  1 12  1  0
  5 13  1  0
  7 14  1  0
M  END
