
     RDKit          3D

 15 14  0  0  0  0  0  0  0  0999 V2000
    2.1703    0.4728   -0.4665 C   0  0  0  0  0  0  0  0  0  0  0  0
    1.2587   -0.3922    0.3506 C   0  0  0  0  0  0  0  0  0  0  0  0
    1.6051   -1.5275    0.6434 O   0  0  0  0  0  0  0  0  0  0  0  0
   -0.0759    0.1326    0.8115 C   0  0  0  0  0  0  0  0  0  0  0  0
   -0.1919    0.0389    2.5902 Cl  0  0  0  0  0  0  0  0  0  0  0  0
   -1.2008   -0.6452    0.1749 C   0  0  0  0  0  0  0  0  0  0  0  0
   -2.1299   -0.0042   -0.8137 C   0  0  0  0  0  0  0  0  0  0  0  0
   -1.3630   -1.8224    0.4613 O   0  0  0  0  0  0  0  0  0  0  0  0
    2.4434    1.3787    0.1139 H   0  0  0  0  0  0  0  0  0  0  0  0
    1.6545    0.7784   -1.4007 H   0  0  0  0  0  0  0  0  0  0  0  0
    3.0989   -0.0760   -0.7328 H   0  0  0  0  0  0  0  0  0  0  0  0
   -0.1592    1.2070    0.5400 H   0  0  0  0  0  0  0  0  0  0  0  0
   -1.8601    1.0565   -0.9983 H   0  0  0  0  0  0  0  0  0  0  0  0
   -3.1692   -0.0444   -0.4258 H   0  0  0  0  0  0  0  0  0  0  0  0
   -2.0809   -0.5529   -1.7775 H   0  0  0  0  0  0  0  0  0  0  0  0
  1  2  1  0
  2  3  2  0
  2  4  1  0
  4  5  1  0
  4  6  1  0
  6  7  1  0
  6  8  2  0
  1  9  1  0
  1 10  1  0
  1 11  1  0
  4 12  1  0
  7 13  1  0
  7 14  1  0
  7 15  1  0
M  END
