
     RDKit          3D

 21 22  0  0  0  0  0  0  0  0999 V2000
   -1.8385   -1.9467   -0.0845 C   0  0  0  0  0  0  0  0  0  0  0  0
   -1.2903   -0.5462    0.0206 C   0  0  0  0  0  0  0  0  0  0  0  0
    0.1034   -0.2805   -0.0333 C   0  0  0  0  0  0  0  0  0  0  0  0
    1.0560   -1.3106   -0.1882 C   0  0  0  0  0  0  0  0  0  0  0  0
    2.4206   -1.0145   -0.2375 C   0  0  0  0  0  0  0  0  0  0  0  0
    2.8590    0.3054   -0.1339 C   0  0  0  0  0  0  0  0  0  0  0  0
    1.9360    1.3406    0.0199 C   0  0  0  0  0  0  0  0  0  0  0  0
    0.5611    1.0613    0.0713 C   0  0  0  0  0  0  0  0  0  0  0  0
   -0.3604    2.1058    0.2259 C   0  0  0  0  0  0  0  0  0  0  0  0
   -1.7262    1.8353    0.2777 C   0  0  0  0  0  0  0  0  0  0  0  0
   -2.1888    0.5235    0.1763 C   0  0  0  0  0  0  0  0  0  0  0  0
   -2.9476   -1.9615   -0.0225 H   0  0  0  0  0  0  0  0  0  0  0  0
   -1.4424   -2.5691    0.7452 H   0  0  0  0  0  0  0  0  0  0  0  0
   -1.5456   -2.3933   -1.0579 H   0  0  0  0  0  0  0  0  0  0  0  0
    0.7595   -2.3474   -0.2723 H   0  0  0  0  0  0  0  0  0  0  0  0
    3.1416   -1.8131   -0.3566 H   0  0  0  0  0  0  0  0  0  0  0  0
    3.9177    0.5272   -0.1729 H   0  0  0  0  0  0  0  0  0  0  0  0
    2.2964    2.3595    0.0986 H   0  0  0  0  0  0  0  0  0  0  0  0
   -0.0237    3.1327    0.3068 H   0  0  0  0  0  0  0  0  0  0  0  0
   -2.4318    2.6475    0.3973 H   0  0  0  0  0  0  0  0  0  0  0  0
   -3.2560    0.3441    0.2199 H   0  0  0  0  0  0  0  0  0  0  0  0
  1  2  1  0
  2  3  2  0
  3  4  1  0
  4  5  2  0
  5  6  1  0
  6  7  2  0
  7  8  1  0
  8  9  2  0
  9 10  1  0
 10 11  2  0
 11  2  1  0
  8  3  1  0
  1 12  1  0
  1 13  1  0
  1 14  1  0
  4 15  1  0
  5 16  1  0
  6 17  1  0
  7 18  1  0
  9 19  1  0
 10 20  1  0
 11 21  1  0
M  END
