
     RDKit          3D

 23 23  0  0  0  0  0  0  0  0999 V2000
    2.5572    0.2547   -0.0734 C   0  0  0  0  0  0  0  0  0  0  0  0
    1.8189   -0.2547   -1.3092 C   0  0  0  0  0  0  0  0  0  0  0  0
    0.4402    0.3982   -1.4911 C   0  0  0  0  0  0  0  0  0  0  0  0
   -0.5513   -0.0576   -0.4400 C   0  0  0  0  0  0  0  0  0  0  0  0
   -0.8538    0.6986    0.7257 C   0  0  0  0  0  0  0  0  0  0  0  0
   -0.2311    1.9609    1.0067 N   0  0  0  0  0  0  0  0  0  0  0  0
   -1.7903    0.1978    1.6456 C   0  0  0  0  0  0  0  0  0  0  0  0
   -2.4112   -1.0335    1.4342 C   0  0  0  0  0  0  0  0  0  0  0  0
   -2.1051   -1.7837    0.3011 C   0  0  0  0  0  0  0  0  0  0  0  0
   -1.1819   -1.3021   -0.6277 C   0  0  0  0  0  0  0  0  0  0  0  0
    2.7053    1.3533   -0.1374 H   0  0  0  0  0  0  0  0  0  0  0  0
    1.9929    0.0068    0.8498 H   0  0  0  0  0  0  0  0  0  0  0  0
    3.5541   -0.2305   -0.0133 H   0  0  0  0  0  0  0  0  0  0  0  0
    2.4384   -0.0305   -2.2044 H   0  0  0  0  0  0  0  0  0  0  0  0
    1.7106   -1.3594   -1.2446 H   0  0  0  0  0  0  0  0  0  0  0  0
    0.5311    1.5009   -1.5413 H   0  0  0  0  0  0  0  0  0  0  0  0
    0.0538    0.1031   -2.4915 H   0  0  0  0  0  0  0  0  0  0  0  0
   -0.5112    2.5083    1.8511 H   0  0  0  0  0  0  0  0  0  0  0  0
    0.5390    2.3581    0.4302 H   0  0  0  0  0  0  0  0  0  0  0  0
   -2.0352    0.7632    2.5362 H   0  0  0  0  0  0  0  0  0  0  0  0
   -3.1282   -1.4084    2.1532 H   0  0  0  0  0  0  0  0  0  0  0  0
   -2.5842   -2.7410    0.1411 H   0  0  0  0  0  0  0  0  0  0  0  0
   -0.9582   -1.9026   -1.5012 H   0  0  0  0  0  0  0  0  0  0  0  0
  1  2  1  0
  2  3  1  0
  3  4  1  0
  4  5  2  0
  5  6  1  0
  5  7  1  0
  7  8  2  0
  8  9  1  0
  9 10  2  0
 10  4  1  0
  1 11  1  0
  1 12  1  0
  1 13  1  0
  2 14  1  0
  2 15  1  0
  3 16  1  0
  3 17  1  0
  6 18  1  0
  6 19  1  0
  7 20  1  0
  8 21  1  0
  9 22  1  0
 10 23  1  0
M  END
