
     RDKit          3D

 19 19  0  0  0  0  0  0  0  0999 V2000
   -2.2393   -0.2424   -0.9788 C   0  0  0  0  0  0  0  0  0  0  0  0
   -1.5572   -0.1650    0.3892 C   0  0  0  0  0  0  0  0  0  0  0  0
   -1.7965   -1.4007    1.1518 C   0  0  0  0  0  0  0  0  0  0  0  0
   -1.9845   -2.3724    1.7516 N   0  0  0  0  0  0  0  0  0  0  0  0
   -0.0719    0.0904    0.2421 C   0  0  0  0  0  0  0  0  0  0  0  0
    0.4760    1.3184    0.6555 C   0  0  0  0  0  0  0  0  0  0  0  0
    1.8438    1.5689    0.5075 C   0  0  0  0  0  0  0  0  0  0  0  0
    2.6770    0.6007   -0.0580 C   0  0  0  0  0  0  0  0  0  0  0  0
    2.1441   -0.6199   -0.4788 C   0  0  0  0  0  0  0  0  0  0  0  0
    0.7773   -0.8758   -0.3334 C   0  0  0  0  0  0  0  0  0  0  0  0
   -1.8509   -1.0983   -1.5720 H   0  0  0  0  0  0  0  0  0  0  0  0
   -2.0604    0.6965   -1.5453 H   0  0  0  0  0  0  0  0  0  0  0  0
   -3.3363   -0.3669   -0.8520 H   0  0  0  0  0  0  0  0  0  0  0  0
   -2.0313    0.6653    0.9569 H   0  0  0  0  0  0  0  0  0  0  0  0
   -0.1539    2.0836    1.0918 H   0  0  0  0  0  0  0  0  0  0  0  0
    2.2577    2.5155    0.8302 H   0  0  0  0  0  0  0  0  0  0  0  0
    3.7352    0.7971   -0.1719 H   0  0  0  0  0  0  0  0  0  0  0  0
    2.7902   -1.3683   -0.9192 H   0  0  0  0  0  0  0  0  0  0  0  0
    0.3811   -1.8267   -0.6671 H   0  0  0  0  0  0  0  0  0  0  0  0
  1  2  1  0
  2  3  1  0
  3  4  3  0
  2  5  1  0
  5  6  2  0
  6  7  1  0
  7  8  2  0
  8  9  1  0
  9 10  2  0
 10  5  1  0
  1 11  1  0
  1 12  1  0
  1 13  1  0
  2 14  1  0
  6 15  1  0
  7 16  1  0
  8 17  1  0
  9 18  1  0
 10 19  1  0
M  END
