
     RDKit          3D

 24 23  0  0  0  0  0  0  0  0999 V2000
   -3.9101    0.1301   -0.2341 C   0  0  0  0  0  0  0  0  0  0  0  0
   -2.4082    0.3612   -0.0935 C   0  0  0  0  0  0  0  0  0  0  0  0
   -1.6103   -0.7697   -0.7589 C   0  0  0  0  0  0  0  0  0  0  0  0
   -0.0962   -0.5076   -0.7509 C   0  0  0  0  0  0  0  0  0  0  0  0
    0.5170   -0.6284    0.6528 C   0  0  0  0  0  0  0  0  0  0  0  0
    2.0153   -0.5340    0.5997 C   0  0  0  0  0  0  0  0  0  0  0  0
    2.6296    0.6235    0.3282 C   0  0  0  0  0  0  0  0  0  0  0  0
    4.0970    0.7798    0.2645 C   0  0  0  0  0  0  0  0  0  0  0  0
    4.9824   -0.1952    0.7249 O   0  0  0  0  0  0  0  0  0  0  0  0
    4.5689    1.8459   -0.2099 O   0  0  0  0  0  0  0  0  0  0  0  0
   -4.4616    0.9558    0.2629 H   0  0  0  0  0  0  0  0  0  0  0  0
   -4.1991   -0.8295    0.2454 H   0  0  0  0  0  0  0  0  0  0  0  0
   -4.1987    0.1061   -1.3066 H   0  0  0  0  0  0  0  0  0  0  0  0
   -2.1496    1.3339   -0.5657 H   0  0  0  0  0  0  0  0  0  0  0  0
   -2.1625    0.4165    0.9879 H   0  0  0  0  0  0  0  0  0  0  0  0
   -1.9360   -0.8632   -1.8183 H   0  0  0  0  0  0  0  0  0  0  0  0
   -1.8286   -1.7361   -0.2534 H   0  0  0  0  0  0  0  0  0  0  0  0
    0.1105    0.4995   -1.1746 H   0  0  0  0  0  0  0  0  0  0  0  0
    0.3857   -1.2575   -1.4165 H   0  0  0  0  0  0  0  0  0  0  0  0
    0.1265    0.1676    1.3219 H   0  0  0  0  0  0  0  0  0  0  0  0
    0.2411   -1.6124    1.0901 H   0  0  0  0  0  0  0  0  0  0  0  0
    2.5782   -1.4348    0.7968 H   0  0  0  0  0  0  0  0  0  0  0  0
    2.0265    1.4989    0.1160 H   0  0  0  0  0  0  0  0  0  0  0  0
    4.6821   -1.0401    1.1915 H   0  0  0  0  0  0  0  0  0  0  0  0
  1  2  1  0
  2  3  1  0
  3  4  1  0
  4  5  1  0
  5  6  1  0
  6  7  2  0
  7  8  1  0
  8  9  1  0
  8 10  2  0
  1 11  1  0
  1 12  1  0
  1 13  1  0
  2 14  1  0
  2 15  1  0
  3 16  1  0
  3 17  1  0
  4 18  1  0
  4 19  1  0
  5 20  1  0
  5 21  1  0
  6 22  1  0
  7 23  1  0
  9 24  1  0
M  END
