
     RDKit          3D

 18 19  0  0  0  0  0  0  0  0999 V2000
   -1.9658    2.7792    0.0059 Cl  0  0  0  0  0  0  0  0  0  0  0  0
   -1.4970    1.0803    0.0046 C   0  0  0  0  0  0  0  0  0  0  0  0
   -0.1442    0.6697    0.0004 C   0  0  0  0  0  0  0  0  0  0  0  0
    0.9139    1.6000   -0.0030 C   0  0  0  0  0  0  0  0  0  0  0  0
    2.2409    1.1620   -0.0072 C   0  0  0  0  0  0  0  0  0  0  0  0
    2.5323   -0.2028   -0.0080 C   0  0  0  0  0  0  0  0  0  0  0  0
    1.4985   -1.1411   -0.0046 C   0  0  0  0  0  0  0  0  0  0  0  0
    0.1601   -0.7179   -0.0004 C   0  0  0  0  0  0  0  0  0  0  0  0
   -0.8779   -1.6611    0.0029 C   0  0  0  0  0  0  0  0  0  0  0  0
   -2.2082   -1.2410    0.0071 C   0  0  0  0  0  0  0  0  0  0  0  0
   -2.5157    0.1203    0.0079 C   0  0  0  0  0  0  0  0  0  0  0  0
    0.7274    2.6656   -0.0025 H   0  0  0  0  0  0  0  0  0  0  0  0
    3.0471    1.8843   -0.0098 H   0  0  0  0  0  0  0  0  0  0  0  0
    3.5625   -0.5346   -0.0112 H   0  0  0  0  0  0  0  0  0  0  0  0
    1.7445   -2.1964   -0.0053 H   0  0  0  0  0  0  0  0  0  0  0  0
   -0.6603   -2.7227    0.0023 H   0  0  0  0  0  0  0  0  0  0  0  0
   -3.0050   -1.9736    0.0097 H   0  0  0  0  0  0  0  0  0  0  0  0
   -3.5532    0.4299    0.0111 H   0  0  0  0  0  0  0  0  0  0  0  0
  1  2  1  0
  2  3  2  0
  3  4  1  0
  4  5  2  0
  5  6  1  0
  6  7  2  0
  7  8  1  0
  8  9  2  0
  9 10  1  0
 10 11  2  0
 11  2  1  0
  8  3  1  0
  4 12  1  0
  5 13  1  0
  6 14  1  0
  7 15  1  0
  9 16  1  0
 10 17  1  0
 11 18  1  0
M  END
