
     RDKit          3D

 31 31  0  0  0  0  0  0  0  0999 V2000
    2.0033   -2.3468    2.0032 C   0  0  0  0  0  0  0  0  0  0  0  0
    1.5268   -1.3017    1.0355 C   0  0  0  0  0  0  0  0  0  0  0  0
    0.1608   -1.0275    0.9149 C   0  0  0  0  0  0  0  0  0  0  0  0
   -0.3228   -0.0251    0.0372 C   0  0  0  0  0  0  0  0  0  0  0  0
    0.6374    0.7136   -0.7153 C   0  0  0  0  0  0  0  0  0  0  0  0
    0.2086    1.7098   -1.5968 O   0  0  0  0  0  0  0  0  0  0  0  0
    2.0208    0.4466   -0.5732 C   0  0  0  0  0  0  0  0  0  0  0  0
    2.4492   -0.5538    0.3057 C   0  0  0  0  0  0  0  0  0  0  0  0
    3.0511    1.2230   -1.3503 C   0  0  0  0  0  0  0  0  0  0  0  0
   -1.8456    0.2602   -0.0977 C   0  0  0  0  0  0  0  0  0  0  0  0
   -2.3062    0.0131   -1.5531 C   0  0  0  0  0  0  0  0  0  0  0  0
   -2.1518    1.7197    0.3110 C   0  0  0  0  0  0  0  0  0  0  0  0
   -2.7173   -0.6497    0.8072 C   0  0  0  0  0  0  0  0  0  0  0  0
    2.1216   -1.8919    3.0088 H   0  0  0  0  0  0  0  0  0  0  0  0
    1.2742   -3.1826    2.0669 H   0  0  0  0  0  0  0  0  0  0  0  0
    2.9785   -2.7700    1.6806 H   0  0  0  0  0  0  0  0  0  0  0  0
   -0.5076   -1.6174    1.5228 H   0  0  0  0  0  0  0  0  0  0  0  0
    0.8326    2.2710   -2.1613 H   0  0  0  0  0  0  0  0  0  0  0  0
    3.5078   -0.7546    0.4236 H   0  0  0  0  0  0  0  0  0  0  0  0
    2.8874    1.0801   -2.4392 H   0  0  0  0  0  0  0  0  0  0  0  0
    4.0845    0.8897   -1.1156 H   0  0  0  0  0  0  0  0  0  0  0  0
    2.9773    2.3021   -1.0995 H   0  0  0  0  0  0  0  0  0  0  0  0
   -1.8707    0.7395   -2.2658 H   0  0  0  0  0  0  0  0  0  0  0  0
   -2.0203   -1.0105   -1.8786 H   0  0  0  0  0  0  0  0  0  0  0  0
   -3.4105    0.1091   -1.6393 H   0  0  0  0  0  0  0  0  0  0  0  0
   -3.2481    1.9047    0.3218 H   0  0  0  0  0  0  0  0  0  0  0  0
   -1.7550    1.9255    1.3287 H   0  0  0  0  0  0  0  0  0  0  0  0
   -1.7148    2.4576   -0.3888 H   0  0  0  0  0  0  0  0  0  0  0  0
   -3.7976   -0.4176    0.6818 H   0  0  0  0  0  0  0  0  0  0  0  0
   -2.5807   -1.7211    0.5441 H   0  0  0  0  0  0  0  0  0  0  0  0
   -2.4729   -0.4953    1.8806 H   0  0  0  0  0  0  0  0  0  0  0  0
  1  2  1  0
  2  3  2  0
  3  4  1  0
  4  5  2  0
  5  6  1  0
  5  7  1  0
  7  8  2  0
  7  9  1  0
  4 10  1  0
 10 11  1  0
 10 12  1  0
 10 13  1  0
  8  2  1  0
  1 14  1  0
  1 15  1  0
  1 16  1  0
  3 17  1  0
  6 18  1  0
  8 19  1  0
  9 20  1  0
  9 21  1  0
  9 22  1  0
 11 23  1  0
 11 24  1  0
 11 25  1  0
 12 26  1  0
 12 27  1  0
 12 28  1  0
 13 29  1  0
 13 30  1  0
 13 31  1  0
M  END
