
     RDKit          3D

 17 16  0  0  0  0  0  0  0  0999 V2000
    2.8000   -0.0615    1.3577 O   0  0  0  0  0  0  0  0  0  0  0  0
    2.1971   -0.6766    0.2650 C   0  0  0  0  0  0  0  0  0  0  0  0
    2.9065   -1.1439   -0.6658 O   0  0  0  0  0  0  0  0  0  0  0  0
    0.7052   -0.7399    0.1754 C   0  0  0  0  0  0  0  0  0  0  0  0
    0.1534    0.5359   -0.4706 C   0  0  0  0  0  0  0  0  0  0  0  0
   -1.3572    0.4632   -0.7510 C   0  0  0  0  0  0  0  0  0  0  0  0
   -2.2200    0.4492    0.5192 C   0  0  0  0  0  0  0  0  0  0  0  0
   -2.5757   -1.3595    1.1302 Br  0  0  0  0  0  0  0  0  0  0  0  0
    3.8086    0.0039    1.4257 H   0  0  0  0  0  0  0  0  0  0  0  0
    0.2970   -0.8514    1.2015 H   0  0  0  0  0  0  0  0  0  0  0  0
    0.4082   -1.6296   -0.4219 H   0  0  0  0  0  0  0  0  0  0  0  0
    0.3732    1.4123    0.1783 H   0  0  0  0  0  0  0  0  0  0  0  0
    0.6715    0.7002   -1.4415 H   0  0  0  0  0  0  0  0  0  0  0  0
   -1.5899   -0.4173   -1.3885 H   0  0  0  0  0  0  0  0  0  0  0  0
   -1.6291    1.3666   -1.3397 H   0  0  0  0  0  0  0  0  0  0  0  0
   -1.7455    1.0345    1.3354 H   0  0  0  0  0  0  0  0  0  0  0  0
   -3.2035    0.9139    0.2949 H   0  0  0  0  0  0  0  0  0  0  0  0
  1  2  1  0
  2  3  2  0
  2  4  1  0
  4  5  1  0
  5  6  1  0
  6  7  1  0
  7  8  1  0
  1  9  1  0
  4 10  1  0
  4 11  1  0
  5 12  1  0
  5 13  1  0
  6 14  1  0
  6 15  1  0
  7 16  1  0
  7 17  1  0
M  END
