
     RDKit          3D

 20 20  0  0  0  0  0  0  0  0999 V2000
    3.8013    0.1778   -0.3859 C   0  0  0  0  0  0  0  0  0  0  0  0
    2.4163    0.4101   -0.1594 O   0  0  0  0  0  0  0  0  0  0  0  0
    1.4453   -0.5821   -0.3346 C   0  0  0  0  0  0  0  0  0  0  0  0
    1.7856   -1.7388   -0.7082 O   0  0  0  0  0  0  0  0  0  0  0  0
    0.0204   -0.2723   -0.0811 C   0  0  0  0  0  0  0  0  0  0  0  0
   -0.3625    1.0152    0.3353 C   0  0  0  0  0  0  0  0  0  0  0  0
   -1.7111    1.3129    0.5765 C   0  0  0  0  0  0  0  0  0  0  0  0
   -2.6841    0.3248    0.4027 C   0  0  0  0  0  0  0  0  0  0  0  0
   -2.3184   -0.9591   -0.0106 C   0  0  0  0  0  0  0  0  0  0  0  0
   -0.9700   -1.2574   -0.2520 C   0  0  0  0  0  0  0  0  0  0  0  0
   -3.3016   -1.9318   -0.1788 O   0  0  0  0  0  0  0  0  0  0  0  0
   -2.0938    2.5873    0.9891 O   0  0  0  0  0  0  0  0  0  0  0  0
    4.1687   -0.6214    0.2922 H   0  0  0  0  0  0  0  0  0  0  0  0
    4.3656    1.1106   -0.1811 H   0  0  0  0  0  0  0  0  0  0  0  0
    3.9691   -0.1197   -1.4427 H   0  0  0  0  0  0  0  0  0  0  0  0
    0.3806    1.7906    0.4740 H   0  0  0  0  0  0  0  0  0  0  0  0
   -3.7257    0.5550    0.5891 H   0  0  0  0  0  0  0  0  0  0  0  0
   -0.7005   -2.2564   -0.5719 H   0  0  0  0  0  0  0  0  0  0  0  0
   -3.0711   -2.8723   -0.4773 H   0  0  0  0  0  0  0  0  0  0  0  0
   -1.4144    3.3268    1.1248 H   0  0  0  0  0  0  0  0  0  0  0  0
  1  2  1  0
  2  3  1  0
  3  4  2  0
  3  5  1  0
  5  6  2  0
  6  7  1  0
  7  8  2  0
  8  9  1  0
  9 10  2  0
  9 11  1  0
  7 12  1  0
 10  5  1  0
  1 13  1  0
  1 14  1  0
  1 15  1  0
  6 16  1  0
  8 17  1  0
 10 18  1  0
 11 19  1  0
 12 20  1  0
M  END
