
     RDKit          3D

 22 23  0  0  0  0  0  0  0  0999 V2000
    3.2030    1.3940    0.3301 C   0  0  0  0  0  0  0  0  0  0  0  0
    1.8016    1.3384    0.0838 O   0  0  0  0  0  0  0  0  0  0  0  0
    1.0121    0.1828    0.2161 C   0  0  0  0  0  0  0  0  0  0  0  0
   -0.3710    0.2571   -0.0580 C   0  0  0  0  0  0  0  0  0  0  0  0
   -0.9687    1.4667   -0.4604 C   0  0  0  0  0  0  0  0  0  0  0  0
   -2.3392    1.5231   -0.7279 C   0  0  0  0  0  0  0  0  0  0  0  0
   -3.1292    0.3795   -0.5985 C   0  0  0  0  0  0  0  0  0  0  0  0
   -2.5546   -0.8296   -0.2005 C   0  0  0  0  0  0  0  0  0  0  0  0
   -1.1794   -0.9023    0.0718 C   0  0  0  0  0  0  0  0  0  0  0  0
   -0.6011   -2.1145    0.4712 C   0  0  0  0  0  0  0  0  0  0  0  0
    0.7652   -2.1839    0.7410 C   0  0  0  0  0  0  0  0  0  0  0  0
    1.5679   -1.0488    0.6160 C   0  0  0  0  0  0  0  0  0  0  0  0
    3.4161    1.1255    1.3863 H   0  0  0  0  0  0  0  0  0  0  0  0
    3.5621    2.4274    0.1474 H   0  0  0  0  0  0  0  0  0  0  0  0
    3.7391    0.7052   -0.3565 H   0  0  0  0  0  0  0  0  0  0  0  0
   -0.3824    2.3705   -0.5697 H   0  0  0  0  0  0  0  0  0  0  0  0
   -2.7904    2.4572   -1.0367 H   0  0  0  0  0  0  0  0  0  0  0  0
   -4.1901    0.4301   -0.8072 H   0  0  0  0  0  0  0  0  0  0  0  0
   -3.1840   -1.7066   -0.1057 H   0  0  0  0  0  0  0  0  0  0  0  0
   -1.2055   -3.0080    0.5746 H   0  0  0  0  0  0  0  0  0  0  0  0
    1.2055   -3.1235    1.0491 H   0  0  0  0  0  0  0  0  0  0  0  0
    2.6230   -1.1405    0.8336 H   0  0  0  0  0  0  0  0  0  0  0  0
  1  2  1  0
  2  3  1  0
  3  4  2  0
  4  5  1  0
  5  6  2  0
  6  7  1  0
  7  8  2  0
  8  9  1  0
  9 10  2  0
 10 11  1  0
 11 12  2  0
 12  3  1  0
  9  4  1  0
  1 13  1  0
  1 14  1  0
  1 15  1  0
  5 16  1  0
  6 17  1  0
  7 18  1  0
  8 19  1  0
 10 20  1  0
 11 21  1  0
 12 22  1  0
M  END
