8
0.0000
C    0.00000000  0.00000000  0.00000000
C   -0.89644830 -0.57604444 -1.07585196
O   -0.82621025 -0.31491875 -2.25560326
O   -1.79481405 -1.42911577 -0.53997477
H   -1.64895435 -1.46937666  0.41921280
H   -0.60456589  0.55917854  0.75007836
H    0.55926705 -0.81382459  0.51546872
H    0.74108028  0.70383791 -0.44276962
8
0.0000
C    0.00000000  0.00000000  0.00000000
C   -1.34116752  0.19697422 -0.70378048
O   -2.27090229 -0.64185977 -0.19458909
H   -1.87139120 -1.18172644  0.50694688
O   -1.56855051  0.98562486 -1.59515028
F    0.96968507  0.86042521 -0.51629663
H   -0.12921243  0.19692966  1.08819437
H    0.32949209 -1.05475654 -0.13626346
8
0.0000
C    0.00000000  0.00000000  0.00000000
C   -1.40291000  0.37750700 -0.49602200
O   -2.34592400 -0.46217800 -0.01264100
H   -1.95639600 -1.07519600  0.63196800
O   -1.63843100  1.29782100 -1.24940400
F   -0.08649000 -0.79670600  1.13899400
F    0.74382500  1.13294800  0.32527900
H    0.50289500 -0.56351500 -0.81835500
8
0.0000
C    0.00000000  0.00000000  0.00000000
C   -1.44270500  0.50034400 -0.21882800
O   -2.34327500 -0.48542100 -0.00175100
H   -1.89530300 -1.29564200  0.29334000
O   -1.73658200  1.62785600 -0.55672600
F    0.01556900 -1.05554500  0.90706100
F    0.86185100  0.99577800  0.45247900
F    0.50804600 -0.48907100 -1.20091600
11
0.0000
C    0.00000000  0.00000000  0.00000000
C    1.09172803  0.86917711 -0.64536465
F    1.79768464  0.10724206 -1.57606011
H    0.63672225  1.74746007 -1.15941575
H    1.79733597  1.24734245  0.13037251
C   -0.82888161  0.74203538  1.03359317
O   -1.77019915 -0.06484806  1.56776568
H   -1.69710633 -0.94370452  1.16121513
O   -0.67143328  1.90167978  1.34156767
H    0.47532525 -0.87879593  0.49607625
H   -0.68575537 -0.37847713 -0.79423086
14
0.0000
C    0.00000000  0.00000000  0.00000000
C    1.11923353  0.89992848 -0.55165205
C    2.06050406  1.41576154  0.54237062
F    1.37252360  2.16713693  1.49138474
F    3.06235546  2.22664557  0.01406968
F    2.68317135  0.36633398  1.21281610
H    1.72154960  0.33087893 -1.29936226
H    0.66931496  1.77662761 -1.07571744
C   -0.93871789 -0.51653651 -1.07746519
O   -1.90023583 -1.29909703 -0.54249482
H   -1.76550154 -1.34959613  0.41787218
O   -0.84660809 -0.26686110 -2.25811751
H   -0.60611040  0.57075893  0.74232474
H    0.44953258 -0.87967274  0.51795550


