20
Title
N 1.6134037 0.9955711 0.51184833
C 1.4215037 -0.373529 0.17564835
O 2.2608037 -1.1254289 1.0046483
C -0.032396294 -0.83552897 0.30914834
C -0.9977963 0.021371024 -0.49985167
C -2.476596 -0.370329 -0.38625166
O -2.8552961 1.0003711 -0.112951666
C -1.4665964 1.3489711 0.11544833
O 1.8771037 -0.570629 -1.1275517
H 2.5783038 1.0916711 0.81504834
H 1.5100037 1.541571 -0.33825168
H 1.9106036 -2.030229 0.99614835
H -0.1060963 -1.8723289 -0.045951664
H -0.3246963 -0.857229 1.3673483
H -0.6924963 0.12517102 -1.5491517
H -2.9314961 -0.742329 -1.3084517
H -2.7459962 -1.0249289 0.4486483
H -1.2727964 1.4909711 1.1831484
H -1.1779963 2.246671 -0.43805167
H 2.7985039 -0.270429 -1.0933517
