
     RDKit          3D

 16 16  0  0  0  0  0  0  0  0999 V2000
    2.8155    0.3681    0.2303 N   0  0  0  0  0  0  0  0  0  0  0  0
    1.7684   -0.5425    0.5791 C   0  0  0  0  0  0  0  0  0  0  0  0
    2.1491   -1.8940    1.4296 S   0  0  0  0  0  0  0  0  0  0  0  0
    0.3609   -0.2592    0.2004 C   0  0  0  0  0  0  0  0  0  0  0  0
   -0.5382   -1.3071   -0.0811 C   0  0  0  0  0  0  0  0  0  0  0  0
   -1.8612   -1.0296   -0.4387 C   0  0  0  0  0  0  0  0  0  0  0  0
   -2.3035    0.2924   -0.5174 C   0  0  0  0  0  0  0  0  0  0  0  0
   -1.4239    1.3400   -0.2376 C   0  0  0  0  0  0  0  0  0  0  0  0
   -0.0994    1.0687    0.1195 C   0  0  0  0  0  0  0  0  0  0  0  0
    3.7951    0.1970    0.5496 H   0  0  0  0  0  0  0  0  0  0  0  0
    2.6399    1.1796   -0.4021 H   0  0  0  0  0  0  0  0  0  0  0  0
   -0.2169   -2.3400   -0.0406 H   0  0  0  0  0  0  0  0  0  0  0  0
   -2.5434   -1.8409   -0.6575 H   0  0  0  0  0  0  0  0  0  0  0  0
   -3.3282    0.5049   -0.7937 H   0  0  0  0  0  0  0  0  0  0  0  0
   -1.7696    2.3642   -0.2929 H   0  0  0  0  0  0  0  0  0  0  0  0
    0.5553    1.8983    0.3529 H   0  0  0  0  0  0  0  0  0  0  0  0
  1  2  1  0
  2  3  2  0
  2  4  1  0
  4  5  2  0
  5  6  1  0
  6  7  2  0
  7  8  1  0
  8  9  2  0
  9  4  1  0
  1 10  1  0
  1 11  1  0
  5 12  1  0
  6 13  1  0
  7 14  1  0
  8 15  1  0
  9 16  1  0
M  END
