
     RDKit          3D

 17 17  0  0  0  0  0  0  0  0999 V2000
   -2.7099   -0.4529   -0.2560 C   0  0  0  0  0  0  0  0  0  0  0  0
   -1.6353    0.5537   -0.5358 C   0  0  0  0  0  0  0  0  0  0  0  0
   -1.9433    1.6009   -1.1655 O   0  0  0  0  0  0  0  0  0  0  0  0
   -0.2218    0.3039   -0.1479 C   0  0  0  0  0  0  0  0  0  0  0  0
    0.2624   -1.0187   -0.1082 C   0  0  0  0  0  0  0  0  0  0  0  0
    1.5899   -1.2836    0.2351 C   0  0  0  0  0  0  0  0  0  0  0  0
    2.4559   -0.2350    0.5468 C   0  0  0  0  0  0  0  0  0  0  0  0
    4.1225   -0.5715    0.9786 Cl  0  0  0  0  0  0  0  0  0  0  0  0
    1.9927    1.0819    0.5195 C   0  0  0  0  0  0  0  0  0  0  0  0
    0.6635    1.3618    0.1768 C   0  0  0  0  0  0  0  0  0  0  0  0
    0.1476    3.0456    0.2307 Cl  0  0  0  0  0  0  0  0  0  0  0  0
   -3.7034    0.0432   -0.2312 H   0  0  0  0  0  0  0  0  0  0  0  0
   -2.5373   -0.9364    0.7286 H   0  0  0  0  0  0  0  0  0  0  0  0
   -2.7146   -1.2253   -1.0531 H   0  0  0  0  0  0  0  0  0  0  0  0
   -0.3801   -1.8526   -0.3600 H   0  0  0  0  0  0  0  0  0  0  0  0
    1.9451   -2.3062    0.2547 H   0  0  0  0  0  0  0  0  0  0  0  0
    2.6662    1.8912    0.7733 H   0  0  0  0  0  0  0  0  0  0  0  0
  1  2  1  0
  2  3  2  0
  2  4  1  0
  4  5  2  0
  5  6  1  0
  6  7  2  0
  7  8  1  0
  7  9  1  0
  9 10  2  0
 10 11  1  0
 10  4  1  0
  1 12  1  0
  1 13  1  0
  1 14  1  0
  5 15  1  0
  6 16  1  0
  9 17  1  0
M  END
