
     RDKit          3D

 15 15  0  0  0  0  0  0  0  0999 V2000
    2.5022    0.2796   -0.1257 N   0  0  0  0  0  0  0  0  0  0  0  0
    1.1068    0.0039    0.0217 C   0  0  0  0  0  0  0  0  0  0  0  0
    0.6827   -1.1236    0.7403 C   0  0  0  0  0  0  0  0  0  0  0  0
   -0.6816   -1.3931    0.8843 C   0  0  0  0  0  0  0  0  0  0  0  0
   -1.6296   -0.5396    0.3126 C   0  0  0  0  0  0  0  0  0  0  0  0
   -1.2140    0.5885   -0.4065 C   0  0  0  0  0  0  0  0  0  0  0  0
    0.1535    0.8594   -0.5514 C   0  0  0  0  0  0  0  0  0  0  0  0
   -2.1900    1.4677   -0.9954 C   0  0  0  0  0  0  0  0  0  0  0  0
   -2.9745    2.1746   -1.4688 N   0  0  0  0  0  0  0  0  0  0  0  0
    3.2194   -0.3511    0.2971 H   0  0  0  0  0  0  0  0  0  0  0  0
    2.8286    1.1164   -0.6587 H   0  0  0  0  0  0  0  0  0  0  0  0
    1.4080   -1.7917    1.1874 H   0  0  0  0  0  0  0  0  0  0  0  0
   -1.0044   -2.2643    1.4396 H   0  0  0  0  0  0  0  0  0  0  0  0
   -2.6841   -0.7584    0.4308 H   0  0  0  0  0  0  0  0  0  0  0  0
    0.4772    1.7317   -1.1074 H   0  0  0  0  0  0  0  0  0  0  0  0
  1  2  1  0
  2  3  2  0
  3  4  1  0
  4  5  2  0
  5  6  1  0
  6  7  2  0
  6  8  1  0
  8  9  3  0
  7  2  1  0
  1 10  1  0
  1 11  1  0
  3 12  1  0
  4 13  1  0
  5 14  1  0
  7 15  1  0
M  END
