
     RDKit          3D

 24 24  0  0  0  0  0  0  0  0999 V2000
   -3.1979   -0.8564   -0.6370 C   0  0  0  0  0  0  0  0  0  0  0  0
   -3.1228    0.4223    0.1943 C   0  0  0  0  0  0  0  0  0  0  0  0
   -2.1709    1.4502   -0.4270 C   0  0  0  0  0  0  0  0  0  0  0  0
   -0.8415    0.9381   -0.5103 O   0  0  0  0  0  0  0  0  0  0  0  0
    0.0087    0.8088    0.5953 C   0  0  0  0  0  0  0  0  0  0  0  0
   -0.3582    1.2259    1.7286 O   0  0  0  0  0  0  0  0  0  0  0  0
    1.3405    0.1867    0.4290 C   0  0  0  0  0  0  0  0  0  0  0  0
    1.7467   -0.2954   -0.8288 C   0  0  0  0  0  0  0  0  0  0  0  0
    3.0045   -0.8857   -0.9877 C   0  0  0  0  0  0  0  0  0  0  0  0
    3.8679   -1.0012    0.1040 C   0  0  0  0  0  0  0  0  0  0  0  0
    3.4753   -0.5269    1.3576 C   0  0  0  0  0  0  0  0  0  0  0  0
    2.2187    0.0642    1.5225 C   0  0  0  0  0  0  0  0  0  0  0  0
   -2.2042   -1.3508   -0.6797 H   0  0  0  0  0  0  0  0  0  0  0  0
   -3.9214   -1.5588   -0.1722 H   0  0  0  0  0  0  0  0  0  0  0  0
   -3.5390   -0.6268   -1.6690 H   0  0  0  0  0  0  0  0  0  0  0  0
   -2.7912    0.1720    1.2245 H   0  0  0  0  0  0  0  0  0  0  0  0
   -4.1387    0.8679    0.2615 H   0  0  0  0  0  0  0  0  0  0  0  0
   -2.1818    2.3874    0.1709 H   0  0  0  0  0  0  0  0  0  0  0  0
   -2.5205    1.7021   -1.4508 H   0  0  0  0  0  0  0  0  0  0  0  0
    1.0942   -0.2182   -1.6894 H   0  0  0  0  0  0  0  0  0  0  0  0
    3.3096   -1.2542   -1.9586 H   0  0  0  0  0  0  0  0  0  0  0  0
    4.8408   -1.4585   -0.0214 H   0  0  0  0  0  0  0  0  0  0  0  0
    4.1452   -0.6173    2.2030 H   0  0  0  0  0  0  0  0  0  0  0  0
    1.9360    0.4245    2.5037 H   0  0  0  0  0  0  0  0  0  0  0  0
  1  2  1  0
  2  3  1  0
  3  4  1  0
  4  5  1  0
  5  6  2  0
  5  7  1  0
  7  8  2  0
  8  9  1  0
  9 10  2  0
 10 11  1  0
 11 12  2  0
 12  7  1  0
  1 13  1  0
  1 14  1  0
  1 15  1  0
  2 16  1  0
  2 17  1  0
  3 18  1  0
  3 19  1  0
  8 20  1  0
  9 21  1  0
 10 22  1  0
 11 23  1  0
 12 24  1  0
M  END
