
     RDKit          3D

 28 29  0  0  0  0  0  0  0  0999 V2000
    5.7735    0.4015   -0.6864 O   0  0  0  0  0  0  0  0  0  0  0  0
    4.3956    0.4306   -0.4839 C   0  0  0  0  0  0  0  0  0  0  0  0
    3.6117    1.3389   -1.1994 C   0  0  0  0  0  0  0  0  0  0  0  0
    2.2276    1.3797   -1.0069 C   0  0  0  0  0  0  0  0  0  0  0  0
    1.6043    0.5062   -0.0950 C   0  0  0  0  0  0  0  0  0  0  0  0
    2.4052   -0.4026    0.6255 C   0  0  0  0  0  0  0  0  0  0  0  0
    3.7892   -0.4394    0.4299 C   0  0  0  0  0  0  0  0  0  0  0  0
    0.1310    0.5637    0.0996 C   0  0  0  0  0  0  0  0  0  0  0  0
   -0.5080    1.5633   -0.3327 O   0  0  0  0  0  0  0  0  0  0  0  0
   -0.6085   -0.5236    0.8427 C   0  0  0  0  0  0  0  0  0  0  0  0
   -2.0922   -0.4892    0.5765 C   0  0  0  0  0  0  0  0  0  0  0  0
   -2.9526    0.2137    1.4369 C   0  0  0  0  0  0  0  0  0  0  0  0
   -4.3241    0.2695    1.1694 C   0  0  0  0  0  0  0  0  0  0  0  0
   -4.8441   -0.3669    0.0389 C   0  0  0  0  0  0  0  0  0  0  0  0
   -3.9928   -1.0570   -0.8285 C   0  0  0  0  0  0  0  0  0  0  0  0
   -2.6207   -1.1154   -0.5650 C   0  0  0  0  0  0  0  0  0  0  0  0
    6.3692   -0.2453   -0.1826 H   0  0  0  0  0  0  0  0  0  0  0  0
    4.0755    2.0145   -1.9069 H   0  0  0  0  0  0  0  0  0  0  0  0
    1.6446    2.0911   -1.5784 H   0  0  0  0  0  0  0  0  0  0  0  0
    1.9720   -1.0783    1.3505 H   0  0  0  0  0  0  0  0  0  0  0  0
    4.3898   -1.1429    0.9924 H   0  0  0  0  0  0  0  0  0  0  0  0
   -0.2155   -1.5169    0.5349 H   0  0  0  0  0  0  0  0  0  0  0  0
   -0.4140   -0.4117    1.9312 H   0  0  0  0  0  0  0  0  0  0  0  0
   -2.5616    0.7189    2.3113 H   0  0  0  0  0  0  0  0  0  0  0  0
   -4.9835    0.8090    1.8369 H   0  0  0  0  0  0  0  0  0  0  0  0
   -5.9056   -0.3216   -0.1673 H   0  0  0  0  0  0  0  0  0  0  0  0
   -4.3957   -1.5441   -1.7071 H   0  0  0  0  0  0  0  0  0  0  0  0
   -1.9701   -1.6457   -1.2495 H   0  0  0  0  0  0  0  0  0  0  0  0
  1  2  1  0
  2  3  2  0
  3  4  1  0
  4  5  2  0
  5  6  1  0
  6  7  2  0
  5  8  1  0
  8  9  2  0
  8 10  1  0
 10 11  1  0
 11 12  2  0
 12 13  1  0
 13 14  2  0
 14 15  1  0
 15 16  2  0
  7  2  1  0
 16 11  1  0
  1 17  1  0
  3 18  1  0
  4 19  1  0
  6 20  1  0
  7 21  1  0
 10 22  1  0
 10 23  1  0
 12 24  1  0
 13 25  1  0
 14 26  1  0
 15 27  1  0
 16 28  1  0
M  END
