
     RDKit          3D

 26 27  0  0  0  0  0  0  0  0999 V2000
   -0.1091    0.5330   -2.5166 O   0  0  0  0  0  0  0  0  0  0  0  0
   -0.0099    0.8718   -1.1530 C   0  0  0  0  0  0  0  0  0  0  0  0
   -1.2363    0.4261   -0.3740 C   0  0  0  0  0  0  0  0  0  0  0  0
   -1.4725   -0.9379   -0.1142 C   0  0  0  0  0  0  0  0  0  0  0  0
   -2.6090   -1.3365    0.5957 C   0  0  0  0  0  0  0  0  0  0  0  0
   -3.5229   -0.3822    1.0483 C   0  0  0  0  0  0  0  0  0  0  0  0
   -3.3033    0.9728    0.7898 C   0  0  0  0  0  0  0  0  0  0  0  0
   -2.1682    1.3770    0.0803 C   0  0  0  0  0  0  0  0  0  0  0  0
    1.2673    0.3458   -0.5241 C   0  0  0  0  0  0  0  0  0  0  0  0
    1.7773    0.9821    0.6224 C   0  0  0  0  0  0  0  0  0  0  0  0
    2.9329    0.5027    1.2460 C   0  0  0  0  0  0  0  0  0  0  0  0
    3.5872   -0.6217    0.7386 C   0  0  0  0  0  0  0  0  0  0  0  0
    3.0846   -1.2712   -0.3909 C   0  0  0  0  0  0  0  0  0  0  0  0
    1.9290   -0.7962   -1.0190 C   0  0  0  0  0  0  0  0  0  0  0  0
   -0.4283   -0.4038   -2.5891 H   0  0  0  0  0  0  0  0  0  0  0  0
    0.0511    1.9821   -1.1175 H   0  0  0  0  0  0  0  0  0  0  0  0
   -0.7780   -1.6927   -0.4599 H   0  0  0  0  0  0  0  0  0  0  0  0
   -2.7817   -2.3865    0.7938 H   0  0  0  0  0  0  0  0  0  0  0  0
   -4.4024   -0.6928    1.5974 H   0  0  0  0  0  0  0  0  0  0  0  0
   -4.0139    1.7110    1.1384 H   0  0  0  0  0  0  0  0  0  0  0  0
   -2.0175    2.4319   -0.1123 H   0  0  0  0  0  0  0  0  0  0  0  0
    1.2763    1.8494    1.0349 H   0  0  0  0  0  0  0  0  0  0  0  0
    3.3191    1.0015    2.1255 H   0  0  0  0  0  0  0  0  0  0  0  0
    4.4810   -0.9926    1.2235 H   0  0  0  0  0  0  0  0  0  0  0  0
    3.5891   -2.1468   -0.7787 H   0  0  0  0  0  0  0  0  0  0  0  0
    1.5581   -1.3267   -1.8851 H   0  0  0  0  0  0  0  0  0  0  0  0
  1  2  1  0
  2  3  1  0
  3  4  2  0
  4  5  1  0
  5  6  2  0
  6  7  1  0
  7  8  2  0
  2  9  1  0
  9 10  2  0
 10 11  1  0
 11 12  2  0
 12 13  1  0
 13 14  2  0
  8  3  1  0
 14  9  1  0
  1 15  1  0
  2 16  1  0
  4 17  1  0
  5 18  1  0
  6 19  1  0
  7 20  1  0
  8 21  1  0
 10 22  1  0
 11 23  1  0
 12 24  1  0
 13 25  1  0
 14 26  1  0
M  END
