
     RDKit          3D

 15 15  0  0  0  0  0  0  0  0999 V2000
   -2.7073   -1.9081   -0.2711 O   0  0  0  0  0  1  0  0  0  0  0  0
   -2.5593   -0.5403   -0.2375 N   0  0  0  0  0  4  0  0  0  0  0  0
   -3.5776    0.1770   -0.3244 O   0  0  0  0  0  0  0  0  0  0  0  0
   -1.2541    0.0514   -0.1036 C   0  0  0  0  0  0  0  0  0  0  0  0
   -1.0943    1.4440   -0.0668 C   0  0  0  0  0  0  0  0  0  0  0  0
    0.1421    1.9881    0.0668 N   0  0  0  0  0  0  0  0  0  0  0  0
    1.2657    1.2292    0.1563 C   0  0  0  0  0  0  0  0  0  0  0  0
    2.7949    2.0612    0.3973 Cl  0  0  0  0  0  0  0  0  0  0  0  0
    1.1677   -0.1782    0.1116 C   0  0  0  0  0  0  0  0  0  0  0  0
   -0.1089   -0.7534   -0.0090 C   0  0  0  0  0  0  0  0  0  0  0  0
    2.3295   -1.0254    0.1888 N   0  0  0  0  0  4  0  0  0  0  0  0
    3.5329   -0.6210   -0.3406 O   0  0  0  0  0  1  0  0  0  0  0  0
    2.2261   -2.1948    0.6141 O   0  0  0  0  0  0  0  0  0  0  0  0
   -1.9508    2.1012   -0.1363 H   0  0  0  0  0  0  0  0  0  0  0  0
   -0.2063   -1.8308   -0.0455 H   0  0  0  0  0  0  0  0  0  0  0  0
  1  2  1  0
  2  3  2  0
  2  4  1  0
  4  5  2  0
  5  6  1  0
  6  7  2  0
  7  8  1  0
  7  9  1  0
  9 10  2  0
  9 11  1  0
 11 12  1  0
 11 13  2  0
 10  4  1  0
  5 14  1  0
 10 15  1  0
M  CHG  4   1  -1   2   1  11   1  12  -1
M  END
