
     RDKit          3D

 15 15  0  0  0  0  0  0  0  0999 V2000
   -2.0009    1.2560    0.3192 O   0  0  0  0  0  0  0  0  0  0  0  0
   -0.7379    0.6832    0.1509 C   0  0  0  0  0  0  0  0  0  0  0  0
   -0.6245   -0.7108   -0.0665 C   0  0  0  0  0  0  0  0  0  0  0  0
   -1.8037   -1.6037   -0.1244 C   0  0  0  0  0  0  0  0  0  0  0  0
   -2.9758   -1.1657    0.0178 O   0  0  0  0  0  0  0  0  0  0  0  0
    0.6477   -1.2805   -0.2350 C   0  0  0  0  0  0  0  0  0  0  0  0
    1.7943   -0.4862   -0.1898 C   0  0  0  0  0  0  0  0  0  0  0  0
    3.6957   -1.3630   -0.4454 I   0  0  0  0  0  0  0  0  0  0  0  0
    1.6838    0.8872    0.0242 C   0  0  0  0  0  0  0  0  0  0  0  0
    0.4284    1.4784    0.1949 C   0  0  0  0  0  0  0  0  0  0  0  0
    0.3751    3.5738    0.5140 I   0  0  0  0  0  0  0  0  0  0  0  0
   -2.1454    2.2440    0.4774 H   0  0  0  0  0  0  0  0  0  0  0  0
   -1.6658   -2.6643   -0.2931 H   0  0  0  0  0  0  0  0  0  0  0  0
    0.7516   -2.3458   -0.4022 H   0  0  0  0  0  0  0  0  0  0  0  0
    2.5771    1.4974    0.0581 H   0  0  0  0  0  0  0  0  0  0  0  0
  1  2  1  0
  2  3  2  0
  3  4  1  0
  4  5  2  0
  3  6  1  0
  6  7  2  0
  7  8  1  0
  7  9  1  0
  9 10  2  0
 10 11  1  0
 10  2  1  0
  1 12  1  0
  4 13  1  0
  6 14  1  0
  9 15  1  0
M  END
