
     RDKit          3D

 16 16  0  0  0  0  0  0  0  0999 V2000
   -1.7691    1.3879   -0.1695 N   0  0  0  0  0  0  0  0  0  0  0  0
   -0.5147    0.6901   -0.1190 C   0  0  0  0  0  0  0  0  0  0  0  0
   -0.4523   -0.6543    0.3296 C   0  0  0  0  0  0  0  0  0  0  0  0
    0.7682   -1.3465    0.2681 C   0  0  0  0  0  0  0  0  0  0  0  0
    1.9230   -0.7141   -0.1938 C   0  0  0  0  0  0  0  0  0  0  0  0
    3.4420   -1.5904   -0.2465 Cl  0  0  0  0  0  0  0  0  0  0  0  0
    1.8723    0.6177   -0.6032 C   0  0  0  0  0  0  0  0  0  0  0  0
    0.6651    1.3221   -0.5714 C   0  0  0  0  0  0  0  0  0  0  0  0
    0.6666    2.9873   -1.1424 Cl  0  0  0  0  0  0  0  0  0  0  0  0
   -1.6020   -1.3207    0.8764 N   0  0  0  0  0  4  0  0  0  0  0  0
   -1.7519   -2.6784    0.7101 O   0  0  0  0  0  1  0  0  0  0  0  0
   -2.3508   -0.7270    1.6796 O   0  0  0  0  0  0  0  0  0  0  0  0
   -2.6785    0.8783   -0.1341 H   0  0  0  0  0  0  0  0  0  0  0  0
   -1.8178    2.4172   -0.3320 H   0  0  0  0  0  0  0  0  0  0  0  0
    0.8276   -2.3737    0.6057 H   0  0  0  0  0  0  0  0  0  0  0  0
    2.7725    1.1045   -0.9576 H   0  0  0  0  0  0  0  0  0  0  0  0
  1  2  1  0
  2  3  2  0
  3  4  1  0
  4  5  2  0
  5  6  1  0
  5  7  1  0
  7  8  2  0
  8  9  1  0
  3 10  1  0
 10 11  1  0
 10 12  2  0
  8  2  1  0
  1 13  1  0
  1 14  1  0
  4 15  1  0
  7 16  1  0
M  CHG  2  10   1  11  -1
M  END
