
     RDKit          3D

 11 11  0  0  0  0  0  0  0  0999 V2000
    2.4119    1.0859    0.1191 F   0  0  0  0  0  0  0  0  0  0  0  0
    1.2185    0.4452    0.0565 C   0  0  0  0  0  0  0  0  0  0  0  0
    0.0274    1.1750    0.0425 C   0  0  0  0  0  0  0  0  0  0  0  0
   -1.1963    0.5044   -0.0221 C   0  0  0  0  0  0  0  0  0  0  0  0
   -1.2086   -0.8930   -0.0720 C   0  0  0  0  0  0  0  0  0  0  0  0
   -2.3851   -1.5630   -0.1351 F   0  0  0  0  0  0  0  0  0  0  0  0
   -0.0370   -1.5845   -0.0574 N   0  0  0  0  0  0  0  0  0  0  0  0
    1.1655   -0.9513    0.0053 C   0  0  0  0  0  0  0  0  0  0  0  0
    2.3094   -1.6781    0.0177 F   0  0  0  0  0  0  0  0  0  0  0  0
   -2.3585    1.2029   -0.0362 F   0  0  0  0  0  0  0  0  0  0  0  0
    0.0527    2.2565    0.0817 H   0  0  0  0  0  0  0  0  0  0  0  0
  1  2  1  0
  2  3  2  0
  3  4  1  0
  4  5  2  0
  5  6  1  0
  5  7  1  0
  7  8  2  0
  8  9  1  0
  4 10  1  0
  8  2  1  0
  3 11  1  0
M  END
