
     RDKit          3D

 18 18  0  0  0  0  0  0  0  0999 V2000
   -3.5825    0.0628    0.0063 C   0  0  0  0  0  0  0  0  0  0  0  0
   -2.2066   -0.2050    0.2483 O   0  0  0  0  0  0  0  0  0  0  0  0
   -1.1775    0.4260   -0.4574 C   0  0  0  0  0  0  0  0  0  0  0  0
   -1.4594    1.2889   -1.3349 O   0  0  0  0  0  0  0  0  0  0  0  0
    0.2443    0.1163   -0.1613 C   0  0  0  0  0  0  0  0  0  0  0  0
    1.2302    1.0650   -0.4991 C   0  0  0  0  0  0  0  0  0  0  0  0
    2.5794    0.8248   -0.2238 C   0  0  0  0  0  0  0  0  0  0  0  0
    2.9650   -0.3677    0.3884 C   0  0  0  0  0  0  0  0  0  0  0  0
    2.0052   -1.3239    0.7204 C   0  0  0  0  0  0  0  0  0  0  0  0
    0.6494   -1.0972    0.4503 C   0  0  0  0  0  0  0  0  0  0  0  0
   -0.4764   -2.3933    0.8453 Cl  0  0  0  0  0  0  0  0  0  0  0  0
    3.7885    2.0243   -0.6447 Cl  0  0  0  0  0  0  0  0  0  0  0  0
   -3.8395   -0.1886   -1.0446 H   0  0  0  0  0  0  0  0  0  0  0  0
   -4.1997   -0.5597    0.6860 H   0  0  0  0  0  0  0  0  0  0  0  0
   -3.8015    1.1340    0.2010 H   0  0  0  0  0  0  0  0  0  0  0  0
    0.9528    2.0024   -0.9660 H   0  0  0  0  0  0  0  0  0  0  0  0
    4.0090   -0.5579    0.6024 H   0  0  0  0  0  0  0  0  0  0  0  0
    2.3193   -2.2511    1.1832 H   0  0  0  0  0  0  0  0  0  0  0  0
  1  2  1  0
  2  3  1  0
  3  4  2  0
  3  5  1  0
  5  6  2  0
  6  7  1  0
  7  8  2  0
  8  9  1  0
  9 10  2  0
 10 11  1  0
  7 12  1  0
 10  5  1  0
  1 13  1  0
  1 14  1  0
  1 15  1  0
  6 16  1  0
  8 17  1  0
  9 18  1  0
M  END
