
     RDKit          3D

 15 15  0  0  0  0  0  0  0  0999 V2000
   -2.9735    0.3608    0.1377 O   0  0  0  0  0  0  0  0  0  0  0  0
   -1.5883    0.1983    0.0748 C   0  0  0  0  0  0  0  0  0  0  0  0
   -1.0054   -1.0537   -0.2059 C   0  0  0  0  0  0  0  0  0  0  0  0
   -2.0664   -2.6185   -0.5205 Br  0  0  0  0  0  0  0  0  0  0  0  0
    0.3878   -1.1779   -0.2608 C   0  0  0  0  0  0  0  0  0  0  0  0
    1.2135   -0.0668   -0.0389 C   0  0  0  0  0  0  0  0  0  0  0  0
    2.6785   -0.2239   -0.1023 C   0  0  0  0  0  0  0  0  0  0  0  0
    3.4471    0.7551    0.0924 O   0  0  0  0  0  0  0  0  0  0  0  0
    0.6288    1.1786    0.2404 C   0  0  0  0  0  0  0  0  0  0  0  0
   -0.7624    1.3104    0.2968 C   0  0  0  0  0  0  0  0  0  0  0  0
   -1.5210    3.0254    0.6804 Br  0  0  0  0  0  0  0  0  0  0  0  0
   -3.6239   -0.3994   -0.0124 H   0  0  0  0  0  0  0  0  0  0  0  0
    0.8263   -2.1447   -0.4773 H   0  0  0  0  0  0  0  0  0  0  0  0
    3.1100   -1.1928   -0.3191 H   0  0  0  0  0  0  0  0  0  0  0  0
    1.2489    2.0491    0.4147 H   0  0  0  0  0  0  0  0  0  0  0  0
  1  2  1  0
  2  3  2  0
  3  4  1  0
  3  5  1  0
  5  6  2  0
  6  7  1  0
  7  8  2  0
  6  9  1  0
  9 10  2  0
 10 11  1  0
 10  2  1  0
  1 12  1  0
  5 13  1  0
  7 14  1  0
  9 15  1  0
M  END
