
     RDKit          3D

 15 14  0  0  0  0  0  0  0  0999 V2000
   -1.2123   -0.1871   -0.9372 C   0  0  0  0  0  0  0  0  0  0  0  0
   -0.1341    0.0137    0.1388 C   0  0  0  0  0  0  0  0  0  0  0  0
    0.3287   -1.3527    0.6672 C   0  0  0  0  0  0  0  0  0  0  0  0
   -0.6910    0.8007    1.2454 N   0  0  0  0  0  0  0  0  0  0  0  0
    1.0195    0.7216   -0.4549 C   0  0  0  0  0  0  0  0  0  0  0  0
    1.9607    1.2998   -0.9388 C   0  0  0  0  0  0  0  0  0  0  0  0
   -1.5476    0.7926   -1.3420 H   0  0  0  0  0  0  0  0  0  0  0  0
   -0.8205   -0.7985   -1.7793 H   0  0  0  0  0  0  0  0  0  0  0  0
   -2.0957   -0.7052   -0.5057 H   0  0  0  0  0  0  0  0  0  0  0  0
   -0.5229   -1.8949    1.1318 H   0  0  0  0  0  0  0  0  0  0  0  0
    1.1211   -1.2262    1.4366 H   0  0  0  0  0  0  0  0  0  0  0  0
    0.7373   -1.9769   -0.1574 H   0  0  0  0  0  0  0  0  0  0  0  0
    0.0508    0.9630    1.9664 H   0  0  0  0  0  0  0  0  0  0  0  0
   -0.9806    1.7431    0.8926 H   0  0  0  0  0  0  0  0  0  0  0  0
    2.7866    1.8071   -1.3635 H   0  0  0  0  0  0  0  0  0  0  0  0
  1  2  1  0
  2  3  1  0
  2  4  1  0
  2  5  1  0
  5  6  3  0
  1  7  1  0
  1  8  1  0
  1  9  1  0
  3 10  1  0
  3 11  1  0
  3 12  1  0
  4 13  1  0
  4 14  1  0
  6 15  1  0
M  END
