
     RDKit          3D

 17 17  0  0  0  0  0  0  0  0999 V2000
    5.0345    0.0506   -0.6754 N   0  0  0  0  0  0  0  0  0  0  0  0
    3.9298    0.2712   -0.9401 C   0  0  0  0  0  0  0  0  0  0  0  0
    2.2441    0.6078   -1.3443 S   0  0  0  0  0  0  0  0  0  0  0  0
    1.6051   -0.1922    0.1625 C   0  0  0  0  0  0  0  0  0  0  0  0
    0.1065   -0.1032    0.1795 C   0  0  0  0  0  0  0  0  0  0  0  0
   -0.5309    1.0098    0.7529 C   0  0  0  0  0  0  0  0  0  0  0  0
   -1.9260    1.1066    0.7391 C   0  0  0  0  0  0  0  0  0  0  0  0
   -2.6923    0.1000    0.1451 C   0  0  0  0  0  0  0  0  0  0  0  0
   -2.0647   -1.0032   -0.4400 C   0  0  0  0  0  0  0  0  0  0  0  0
   -0.6699   -1.1040   -0.4284 C   0  0  0  0  0  0  0  0  0  0  0  0
    2.0273    0.3101    1.0601 H   0  0  0  0  0  0  0  0  0  0  0  0
    1.9243   -1.2571    0.1843 H   0  0  0  0  0  0  0  0  0  0  0  0
    0.0516    1.8011    1.2084 H   0  0  0  0  0  0  0  0  0  0  0  0
   -2.4129    1.9638    1.1860 H   0  0  0  0  0  0  0  0  0  0  0  0
   -3.7719    0.1771    0.1341 H   0  0  0  0  0  0  0  0  0  0  0  0
   -2.6589   -1.7789   -0.9056 H   0  0  0  0  0  0  0  0  0  0  0  0
   -0.1956   -1.9596   -0.8932 H   0  0  0  0  0  0  0  0  0  0  0  0
  1  2  3  0
  2  3  1  0
  3  4  1  0
  4  5  1  0
  5  6  2  0
  6  7  1  0
  7  8  2  0
  8  9  1  0
  9 10  2  0
 10  5  1  0
  4 11  1  0
  4 12  1  0
  6 13  1  0
  7 14  1  0
  8 15  1  0
  9 16  1  0
 10 17  1  0
M  END
