
     RDKit          3D

 17 18  0  0  0  0  0  0  0  0999 V2000
   -2.2362    0.9007   -0.1254 C   0  0  0  0  0  0  0  0  0  0  0  0
   -0.9512    1.4159    0.0751 C   0  0  0  0  0  0  0  0  0  0  0  0
    0.1551    0.5533    0.0853 C   0  0  0  0  0  0  0  0  0  0  0  0
   -0.0356   -0.8342   -0.1076 C   0  0  0  0  0  0  0  0  0  0  0  0
   -1.3254   -1.3397   -0.3074 C   0  0  0  0  0  0  0  0  0  0  0  0
   -2.4227   -0.4725   -0.3161 C   0  0  0  0  0  0  0  0  0  0  0  0
    1.0348   -1.6741   -0.0984 N   0  0  0  0  0  0  0  0  0  0  0  0
    2.3007   -1.2155    0.0931 C   0  0  0  0  0  0  0  0  0  0  0  0
    2.5323    0.1488    0.2875 C   0  0  0  0  0  0  0  0  0  0  0  0
    1.4547    1.0372    0.2835 C   0  0  0  0  0  0  0  0  0  0  0  0
   -3.0892    1.5669   -0.1332 H   0  0  0  0  0  0  0  0  0  0  0  0
   -0.8227    2.4817    0.2214 H   0  0  0  0  0  0  0  0  0  0  0  0
   -1.4796   -2.4013   -0.4559 H   0  0  0  0  0  0  0  0  0  0  0  0
   -3.4194   -0.8651   -0.4708 H   0  0  0  0  0  0  0  0  0  0  0  0
    3.1293   -1.9110    0.0946 H   0  0  0  0  0  0  0  0  0  0  0  0
    3.5396    0.5142    0.4399 H   0  0  0  0  0  0  0  0  0  0  0  0
    1.6354    2.0948    0.4343 H   0  0  0  0  0  0  0  0  0  0  0  0
  1  2  2  0
  2  3  1  0
  3  4  2  0
  4  5  1  0
  5  6  2  0
  4  7  1  0
  7  8  2  0
  8  9  1  0
  9 10  2  0
  6  1  1  0
 10  3  1  0
  1 11  1  0
  2 12  1  0
  5 13  1  0
  6 14  1  0
  8 15  1  0
  9 16  1  0
 10 17  1  0
M  END
