
     RDKit          3D

 24 23  0  0  0  0  0  0  0  0999 V2000
   -3.3540    1.6145    0.3399 C   0  0  0  0  0  0  0  0  0  0  0  0
   -2.9613    0.1741    0.6677 C   0  0  0  0  0  0  0  0  0  0  0  0
   -1.9503   -0.4085   -0.3318 C   0  0  0  0  0  0  0  0  0  0  0  0
   -0.5554    0.2192   -0.1939 C   0  0  0  0  0  0  0  0  0  0  0  0
    0.4504   -0.4727   -1.1185 C   0  0  0  0  0  0  0  0  0  0  0  0
    1.8034    0.1493   -0.9778 C   0  0  0  0  0  0  0  0  0  0  0  0
    2.1380    1.0973   -1.7399 O   0  0  0  0  0  0  0  0  0  0  0  0
    2.6630   -0.3006    0.0292 O   0  0  0  0  0  0  0  0  0  0  0  0
    3.9326    0.2395    0.2439 C   0  0  0  0  0  0  0  0  0  0  0  0
    4.6953   -0.2339    1.2203 C   0  0  0  0  0  0  0  0  0  0  0  0
   -4.1697    1.9379    1.0204 H   0  0  0  0  0  0  0  0  0  0  0  0
   -3.7172    1.6901   -0.7071 H   0  0  0  0  0  0  0  0  0  0  0  0
   -2.4933    2.2996    0.4840 H   0  0  0  0  0  0  0  0  0  0  0  0
   -2.5514    0.1252    1.6999 H   0  0  0  0  0  0  0  0  0  0  0  0
   -3.8801   -0.4511    0.6417 H   0  0  0  0  0  0  0  0  0  0  0  0
   -2.3261   -0.2728   -1.3698 H   0  0  0  0  0  0  0  0  0  0  0  0
   -1.8726   -1.5016   -0.1419 H   0  0  0  0  0  0  0  0  0  0  0  0
   -0.2097    0.1257    0.8595 H   0  0  0  0  0  0  0  0  0  0  0  0
   -0.6027    1.2976   -0.4579 H   0  0  0  0  0  0  0  0  0  0  0  0
    0.1122   -0.3904   -2.1749 H   0  0  0  0  0  0  0  0  0  0  0  0
    0.5211   -1.5515   -0.8600 H   0  0  0  0  0  0  0  0  0  0  0  0
    4.3065    1.0440   -0.3784 H   0  0  0  0  0  0  0  0  0  0  0  0
    5.6802    0.1808    1.3915 H   0  0  0  0  0  0  0  0  0  0  0  0
    4.3413   -1.0371    1.8538 H   0  0  0  0  0  0  0  0  0  0  0  0
  1  2  1  0
  2  3  1  0
  3  4  1  0
  4  5  1  0
  5  6  1  0
  6  7  2  0
  6  8  1  0
  8  9  1  0
  9 10  2  3
  1 11  1  0
  1 12  1  0
  1 13  1  0
  2 14  1  0
  2 15  1  0
  3 16  1  0
  3 17  1  0
  4 18  1  0
  4 19  1  0
  5 20  1  0
  5 21  1  0
  9 22  1  0
 10 23  1  0
 10 24  1  0
M  END
