
     RDKit          3D

 17 17  0  0  0  0  0  0  0  0999 V2000
    2.9770    0.1343    0.0697 C   0  0  0  0  0  0  0  0  0  0  0  0
    1.5266    0.3938   -0.3359 C   0  0  0  0  0  0  0  0  0  0  0  0
    0.5385   -0.4589    0.4200 C   0  0  0  0  0  0  0  0  0  0  0  0
    0.9340   -1.2768    1.2949 O   0  0  0  0  0  0  0  0  0  0  0  0
   -0.9046   -0.3503    0.1514 C   0  0  0  0  0  0  0  0  0  0  0  0
   -1.5105    0.4895   -0.7651 C   0  0  0  0  0  0  0  0  0  0  0  0
   -2.8619    0.2401   -0.6610 C   0  0  0  0  0  0  0  0  0  0  0  0
   -2.9987   -0.7325    0.3082 C   0  0  0  0  0  0  0  0  0  0  0  0
   -1.8159   -1.0635    0.7730 O   0  0  0  0  0  0  0  0  0  0  0  0
    3.1224    0.3588    1.1480 H   0  0  0  0  0  0  0  0  0  0  0  0
    3.6506    0.7897   -0.5217 H   0  0  0  0  0  0  0  0  0  0  0  0
    3.2498   -0.9243   -0.1286 H   0  0  0  0  0  0  0  0  0  0  0  0
    1.4196    0.1924   -1.4235 H   0  0  0  0  0  0  0  0  0  0  0  0
    1.2918    1.4647   -0.1547 H   0  0  0  0  0  0  0  0  0  0  0  0
   -1.0328    1.1978   -1.4291 H   0  0  0  0  0  0  0  0  0  0  0  0
   -3.6552    0.7116   -1.2253 H   0  0  0  0  0  0  0  0  0  0  0  0
   -3.9308   -1.1663    0.6448 H   0  0  0  0  0  0  0  0  0  0  0  0
  1  2  1  0
  2  3  1  0
  3  4  2  0
  3  5  1  0
  5  6  2  0
  6  7  1  0
  7  8  2  0
  8  9  1  0
  9  5  1  0
  1 10  1  0
  1 11  1  0
  1 12  1  0
  2 13  1  0
  2 14  1  0
  6 15  1  0
  7 16  1  0
  8 17  1  0
M  END
