
     RDKit          3D

 17 16  0  0  0  0  0  0  0  0999 V2000
   -1.8810    0.7768   -0.4872 C   0  0  0  0  0  0  0  0  0  0  0  0
   -1.7655   -0.1459    0.7263 C   0  0  0  0  0  0  0  0  0  0  0  0
   -0.5556   -1.0875    0.6283 C   0  0  0  0  0  0  0  0  0  0  0  0
   -0.6089   -2.3796    2.0768 Br  0  0  0  0  0  0  0  0  0  0  0  0
    0.7415   -0.3347    0.6794 C   0  0  0  0  0  0  0  0  0  0  0  0
    1.0683    0.2909    1.7257 O   0  0  0  0  0  0  0  0  0  0  0  0
    1.5694   -0.3181   -0.4467 O   0  0  0  0  0  0  0  0  0  0  0  0
    2.8022    0.3905   -0.4802 C   0  0  0  0  0  0  0  0  0  0  0  0
   -2.7962    1.3985   -0.3940 H   0  0  0  0  0  0  0  0  0  0  0  0
   -1.9516    0.1798   -1.4212 H   0  0  0  0  0  0  0  0  0  0  0  0
   -1.0023    1.4531   -0.5491 H   0  0  0  0  0  0  0  0  0  0  0  0
   -1.6999    0.4673    1.6516 H   0  0  0  0  0  0  0  0  0  0  0  0
   -2.6927   -0.7558    0.7883 H   0  0  0  0  0  0  0  0  0  0  0  0
   -0.6119   -1.6611   -0.3224 H   0  0  0  0  0  0  0  0  0  0  0  0
    3.4873   -0.0013    0.3012 H   0  0  0  0  0  0  0  0  0  0  0  0
    2.6223    1.4737   -0.3134 H   0  0  0  0  0  0  0  0  0  0  0  0
    3.2745    0.2534   -1.4744 H   0  0  0  0  0  0  0  0  0  0  0  0
  1  2  1  0
  2  3  1  0
  3  4  1  0
  3  5  1  0
  5  6  2  0
  5  7  1  0
  7  8  1  0
  1  9  1  0
  1 10  1  0
  1 11  1  0
  2 12  1  0
  2 13  1  0
  3 14  1  0
  8 15  1  0
  8 16  1  0
  8 17  1  0
M  END
