
     RDKit          3D

 15 15  0  0  0  0  0  0  0  0999 V2000
    2.0370    0.6872   -0.3292 C   0  0  0  0  0  0  0  0  0  0  0  0
    1.3093   -0.4267    0.4139 C   0  0  0  0  0  0  0  0  0  0  0  0
   -0.1564   -0.3881    0.1159 C   0  0  0  0  0  0  0  0  0  0  0  0
   -1.1032    0.3389    0.8093 C   0  0  0  0  0  0  0  0  0  0  0  0
   -2.2986    0.0947    0.1683 C   0  0  0  0  0  0  0  0  0  0  0  0
   -2.0063   -0.7599   -0.8760 C   0  0  0  0  0  0  0  0  0  0  0  0
   -0.7204   -1.0272   -0.8827 O   0  0  0  0  0  0  0  0  0  0  0  0
    1.8983    0.5737   -1.4258 H   0  0  0  0  0  0  0  0  0  0  0  0
    3.1225    0.6388   -0.1009 H   0  0  0  0  0  0  0  0  0  0  0  0
    1.6504    1.6792   -0.0111 H   0  0  0  0  0  0  0  0  0  0  0  0
    1.4739   -0.3128    1.5071 H   0  0  0  0  0  0  0  0  0  0  0  0
    1.7217   -1.4096    0.1007 H   0  0  0  0  0  0  0  0  0  0  0  0
   -0.9425    0.9725    1.6716 H   0  0  0  0  0  0  0  0  0  0  0  0
   -3.2692    0.4953    0.4282 H   0  0  0  0  0  0  0  0  0  0  0  0
   -2.7164   -1.1560   -1.5894 H   0  0  0  0  0  0  0  0  0  0  0  0
  1  2  1  0
  2  3  1  0
  3  4  2  0
  4  5  1  0
  5  6  2  0
  6  7  1  0
  7  3  1  0
  1  8  1  0
  1  9  1  0
  1 10  1  0
  2 11  1  0
  2 12  1  0
  4 13  1  0
  5 14  1  0
  6 15  1  0
M  END
