
     RDKit          3D

 20 21  0  0  0  0  0  0  0  0999 V2000
    3.2743   -0.8834    0.0668 C   0  0  0  0  0  0  0  0  0  0  0  0
    1.8996   -0.2980    0.0047 C   0  0  0  0  0  0  0  0  0  0  0  0
    0.8125   -1.1036    0.1569 N   0  0  0  0  0  0  0  0  0  0  0  0
   -0.4560   -0.6151    0.1078 C   0  0  0  0  0  0  0  0  0  0  0  0
   -1.5480   -1.4756    0.2688 C   0  0  0  0  0  0  0  0  0  0  0  0
   -2.8508   -0.9693    0.2177 C   0  0  0  0  0  0  0  0  0  0  0  0
   -3.0672    0.3964    0.0058 C   0  0  0  0  0  0  0  0  0  0  0  0
   -1.9824    1.2645   -0.1562 C   0  0  0  0  0  0  0  0  0  0  0  0
   -0.6724    0.7648   -0.1063 C   0  0  0  0  0  0  0  0  0  0  0  0
    0.4349    1.6072   -0.2648 C   0  0  0  0  0  0  0  0  0  0  0  0
    1.7253    1.0760   -0.2094 C   0  0  0  0  0  0  0  0  0  0  0  0
    3.8441   -0.4153    0.8969 H   0  0  0  0  0  0  0  0  0  0  0  0
    3.8042   -0.6987   -0.8912 H   0  0  0  0  0  0  0  0  0  0  0  0
    3.2248   -1.9792    0.2416 H   0  0  0  0  0  0  0  0  0  0  0  0
   -1.3901   -2.5344    0.4333 H   0  0  0  0  0  0  0  0  0  0  0  0
   -3.6941   -1.6362    0.3424 H   0  0  0  0  0  0  0  0  0  0  0  0
   -4.0776    0.7826   -0.0328 H   0  0  0  0  0  0  0  0  0  0  0  0
   -2.1658    2.3197   -0.3196 H   0  0  0  0  0  0  0  0  0  0  0  0
    0.3032    2.6698   -0.4304 H   0  0  0  0  0  0  0  0  0  0  0  0
    2.5814    1.7279   -0.3320 H   0  0  0  0  0  0  0  0  0  0  0  0
  1  2  1  0
  2  3  2  0
  3  4  1  0
  4  5  2  0
  5  6  1  0
  6  7  2  0
  7  8  1  0
  8  9  2  0
  9 10  1  0
 10 11  2  0
 11  2  1  0
  9  4  1  0
  1 12  1  0
  1 13  1  0
  1 14  1  0
  5 15  1  0
  6 16  1  0
  7 17  1  0
  8 18  1  0
 10 19  1  0
 11 20  1  0
M  END
