
     RDKit          3D

 14 14  0  0  0  0  0  0  0  0999 V2000
   -2.2015   -0.7646    0.3051 N   0  0  0  0  0  0  0  0  0  0  0  0
   -0.8547   -0.2969    0.1184 C   0  0  0  0  0  0  0  0  0  0  0  0
   -0.5172    1.0445    0.4146 C   0  0  0  0  0  0  0  0  0  0  0  0
   -1.7338    2.1732    1.0179 Cl  0  0  0  0  0  0  0  0  0  0  0  0
    0.8019    1.4929    0.2291 C   0  0  0  0  0  0  0  0  0  0  0  0
    1.7783    0.6177   -0.2464 C   0  0  0  0  0  0  0  0  0  0  0  0
    1.4593   -0.7076   -0.5425 C   0  0  0  0  0  0  0  0  0  0  0  0
    0.1454   -1.1736   -0.3631 C   0  0  0  0  0  0  0  0  0  0  0  0
   -0.2315   -2.8557   -0.7455 Cl  0  0  0  0  0  0  0  0  0  0  0  0
    2.7339   -1.7643   -1.1392 Cl  0  0  0  0  0  0  0  0  0  0  0  0
    1.2649    3.1532    0.5851 Cl  0  0  0  0  0  0  0  0  0  0  0  0
   -2.9589   -0.1410    0.6585 H   0  0  0  0  0  0  0  0  0  0  0  0
   -2.4789   -1.7477    0.0951 H   0  0  0  0  0  0  0  0  0  0  0  0
    2.7928    0.9700   -0.3870 H   0  0  0  0  0  0  0  0  0  0  0  0
  1  2  1  0
  2  3  2  0
  3  4  1  0
  3  5  1  0
  5  6  2  0
  6  7  1  0
  7  8  2  0
  8  9  1  0
  7 10  1  0
  5 11  1  0
  8  2  1  0
  1 12  1  0
  1 13  1  0
  6 14  1  0
M  END
