
     RDKit          3D

 16 16  0  0  0  0  0  0  0  0999 V2000
    2.8882   -1.3975   -1.2094 O   0  0  0  0  0  1  0  0  0  0  0  0
    2.5825   -0.1843   -0.6361 N   0  0  0  0  0  4  0  0  0  0  0  0
    3.4322    0.7287   -0.6799 O   0  0  0  0  0  0  0  0  0  0  0  0
    1.2534    0.0653   -0.1408 C   0  0  0  0  0  0  0  0  0  0  0  0
    0.1761   -0.6660   -0.6694 C   0  0  0  0  0  0  0  0  0  0  0  0
   -1.1429   -0.4445   -0.2353 C   0  0  0  0  0  0  0  0  0  0  0  0
   -1.3779    0.5151    0.7720 C   0  0  0  0  0  0  0  0  0  0  0  0
   -2.9778    0.7943    1.4511 Cl  0  0  0  0  0  0  0  0  0  0  0  0
   -0.3085    1.2356    1.3113 C   0  0  0  0  0  0  0  0  0  0  0  0
    0.9996    1.0222    0.8671 C   0  0  0  0  0  0  0  0  0  0  0  0
    2.2874    1.9244    1.6601 Cl  0  0  0  0  0  0  0  0  0  0  0  0
   -2.2190   -1.1979   -0.8244 N   0  0  0  0  0  4  0  0  0  0  0  0
   -3.4570   -0.6280   -1.0107 O   0  0  0  0  0  1  0  0  0  0  0  0
   -2.0033   -2.3304   -1.3040 O   0  0  0  0  0  0  0  0  0  0  0  0
    0.3609   -1.3932   -1.4499 H   0  0  0  0  0  0  0  0  0  0  0  0
   -0.4938    1.9564    2.0983 H   0  0  0  0  0  0  0  0  0  0  0  0
  1  2  1  0
  2  3  2  0
  2  4  1  0
  4  5  2  0
  5  6  1  0
  6  7  2  0
  7  8  1  0
  7  9  1  0
  9 10  2  0
 10 11  1  0
  6 12  1  0
 12 13  1  0
 12 14  2  0
 10  4  1  0
  5 15  1  0
  9 16  1  0
M  CHG  4   1  -1   2   1  12   1  13  -1
M  END
