
     RDKit          3D

 14 14  0  0  0  0  0  0  0  0999 V2000
    1.2569    2.7689    0.2653 F   0  0  0  0  0  0  0  0  0  0  0  0
    0.8642    1.4773    0.1389 C   0  0  0  0  0  0  0  0  0  0  0  0
   -0.4977    1.1596    0.1252 C   0  0  0  0  0  0  0  0  0  0  0  0
   -0.9167   -0.1771   -0.0055 C   0  0  0  0  0  0  0  0  0  0  0  0
    0.0570   -1.1878   -0.1220 C   0  0  0  0  0  0  0  0  0  0  0  0
    1.4185   -0.8656   -0.1078 C   0  0  0  0  0  0  0  0  0  0  0  0
    1.8210    0.4663    0.0225 C   0  0  0  0  0  0  0  0  0  0  0  0
    2.8653   -2.3905   -0.2833 I   0  0  0  0  0  0  0  0  0  0  0  0
   -2.3187   -0.5025   -0.0194 N   0  0  0  0  0  4  0  0  0  0  0  0
   -3.2676    0.4877    0.0947 O   0  0  0  0  0  1  0  0  0  0  0  0
   -2.6967   -1.6869   -0.1351 O   0  0  0  0  0  0  0  0  0  0  0  0
   -1.2224    1.9582    0.2167 H   0  0  0  0  0  0  0  0  0  0  0  0
   -0.2368   -2.2245   -0.2238 H   0  0  0  0  0  0  0  0  0  0  0  0
    2.8739    0.7168    0.0336 H   0  0  0  0  0  0  0  0  0  0  0  0
  1  2  1  0
  2  3  2  0
  3  4  1  0
  4  5  2  0
  5  6  1  0
  6  7  2  0
  6  8  1  0
  4  9  1  0
  9 10  1  0
  9 11  2  0
  7  2  1  0
  3 12  1  0
  5 13  1  0
  7 14  1  0
M  CHG  2   9   1  10  -1
M  END
