
     RDKit          3D

 17 17  0  0  0  0  0  0  0  0999 V2000
    3.3506    1.6039    0.0068 O   0  0  0  0  0  1  0  0  0  0  0  0
    2.7414    0.3831    0.1866 N   0  0  0  0  0  4  0  0  0  0  0  0
    3.4520   -0.6099    0.4478 O   0  0  0  0  0  0  0  0  0  0  0  0
    1.3115    0.2550    0.0753 C   0  0  0  0  0  0  0  0  0  0  0  0
    0.6860   -0.9925    0.2588 C   0  0  0  0  0  0  0  0  0  0  0  0
   -0.7114   -1.1233    0.1511 C   0  0  0  0  0  0  0  0  0  0  0  0
   -1.4820    0.0137   -0.1439 C   0  0  0  0  0  0  0  0  0  0  0  0
   -0.8694    1.2579   -0.3280 C   0  0  0  0  0  0  0  0  0  0  0  0
    0.5202    1.3780   -0.2190 C   0  0  0  0  0  0  0  0  0  0  0  0
   -1.6699    2.4161   -0.6300 C   0  0  0  0  0  0  0  0  0  0  0  0
   -2.3133    3.3469   -0.8727 N   0  0  0  0  0  0  0  0  0  0  0  0
   -1.3459   -2.4021    0.3398 N   0  0  0  0  0  4  0  0  0  0  0  0
   -2.7124   -2.5274    0.2340 O   0  0  0  0  0  1  0  0  0  0  0  0
   -0.6684   -3.4175    0.6023 O   0  0  0  0  0  0  0  0  0  0  0  0
    1.2877   -1.8630    0.4858 H   0  0  0  0  0  0  0  0  0  0  0  0
   -2.5590   -0.0658   -0.2311 H   0  0  0  0  0  0  0  0  0  0  0  0
    0.9822    2.3471   -0.3638 H   0  0  0  0  0  0  0  0  0  0  0  0
  1  2  1  0
  2  3  2  0
  2  4  1  0
  4  5  2  0
  5  6  1  0
  6  7  2  0
  7  8  1  0
  8  9  2  0
  8 10  1  0
 10 11  3  0
  6 12  1  0
 12 13  1  0
 12 14  2  0
  9  4  1  0
  5 15  1  0
  7 16  1  0
  9 17  1  0
M  CHG  4   1  -1   2   1  12   1  13  -1
M  END
