
     RDKit          3D

 15 15  0  0  0  0  0  0  0  0999 V2000
   -2.8831    0.0688   -0.4509 N   0  0  0  0  0  0  0  0  0  0  0  0
   -1.4662    0.0564   -0.2758 C   0  0  0  0  0  0  0  0  0  0  0  0
   -0.6601    0.5458   -1.2558 N   0  0  0  0  0  0  0  0  0  0  0  0
    0.6944    0.5558   -1.1360 C   0  0  0  0  0  0  0  0  0  0  0  0
    1.3079    0.0522    0.0231 C   0  0  0  0  0  0  0  0  0  0  0  0
    0.4878   -0.4568    1.0443 C   0  0  0  0  0  0  0  0  0  0  0  0
   -0.9003   -0.4556    0.8966 C   0  0  0  0  0  0  0  0  0  0  0  0
    2.7405    0.0592    0.1578 N   0  0  0  0  0  4  0  0  0  0  0  0
    3.5345    0.5601   -0.8484 O   0  0  0  0  0  1  0  0  0  0  0  0
    3.2853   -0.3885    1.1882 O   0  0  0  0  0  0  0  0  0  0  0  0
   -3.5192   -0.3024    0.2897 H   0  0  0  0  0  0  0  0  0  0  0  0
   -3.3011    0.4519   -1.3276 H   0  0  0  0  0  0  0  0  0  0  0  0
    1.2885    0.9569   -1.9459 H   0  0  0  0  0  0  0  0  0  0  0  0
    0.9187   -0.8546    1.9542 H   0  0  0  0  0  0  0  0  0  0  0  0
   -1.5277   -0.8491    1.6865 H   0  0  0  0  0  0  0  0  0  0  0  0
  1  2  1  0
  2  3  2  0
  3  4  1  0
  4  5  2  0
  5  6  1  0
  6  7  2  0
  5  8  1  0
  8  9  1  0
  8 10  2  0
  7  2  1  0
  1 11  1  0
  1 12  1  0
  4 13  1  0
  6 14  1  0
  7 15  1  0
M  CHG  2   8   1   9  -1
M  END
