
     RDKit          3D

 16 15  0  0  0  0  0  0  0  0999 V2000
   -1.9857   -0.4543   -0.3346 C   0  0  0  0  0  0  0  0  0  0  0  0
   -1.2734    0.7257    0.2669 C   0  0  0  0  0  0  0  0  0  0  0  0
   -1.9669    1.8197    0.6043 C   0  0  0  0  0  0  0  0  0  0  0  0
    0.1996    0.6837    0.4094 C   0  0  0  0  0  0  0  0  0  0  0  0
    0.8196    1.6566    0.9228 O   0  0  0  0  0  0  0  0  0  0  0  0
    0.8998   -0.4450   -0.0317 O   0  0  0  0  0  0  0  0  0  0  0  0
    2.2874   -0.5690    0.0637 C   0  0  0  0  0  0  0  0  0  0  0  0
    2.8836   -1.6694   -0.3755 C   0  0  0  0  0  0  0  0  0  0  0  0
   -1.8485   -0.4458   -1.4361 H   0  0  0  0  0  0  0  0  0  0  0  0
   -1.5716   -1.4000    0.0745 H   0  0  0  0  0  0  0  0  0  0  0  0
   -3.0736   -0.4367   -0.1078 H   0  0  0  0  0  0  0  0  0  0  0  0
   -1.4787    2.6941    1.0158 H   0  0  0  0  0  0  0  0  0  0  0  0
   -3.0410    1.8618    0.4721 H   0  0  0  0  0  0  0  0  0  0  0  0
    2.8881    0.2239    0.4933 H   0  0  0  0  0  0  0  0  0  0  0  0
    2.3025   -2.4738   -0.8081 H   0  0  0  0  0  0  0  0  0  0  0  0
    3.9587   -1.7716   -0.3043 H   0  0  0  0  0  0  0  0  0  0  0  0
  1  2  1  0
  2  3  2  3
  2  4  1  0
  4  5  2  0
  4  6  1  0
  6  7  1  0
  7  8  2  3
  1  9  1  0
  1 10  1  0
  1 11  1  0
  3 12  1  0
  3 13  1  0
  7 14  1  0
  8 15  1  0
  8 16  1  0
M  END
