
     RDKit          3D

 12 12  0  0  0  0  0  0  0  0999 V2000
    2.7006    1.0517   -0.3446 O   0  0  0  0  0  1  0  0  0  0  0  0
    1.9603    0.0500    0.2391 N   0  0  0  0  0  4  0  0  0  0  0  0
    2.5439   -0.8203    0.9171 O   0  0  0  0  0  0  0  0  0  0  0  0
    0.5343    0.0068    0.0702 C   0  0  0  0  0  0  0  0  0  0  0  0
   -0.1280   -1.1958   -0.2461 C   0  0  0  0  0  0  0  0  0  0  0  0
    0.7468   -2.6977   -0.5060 Cl  0  0  0  0  0  0  0  0  0  0  0  0
   -1.4766   -1.2031   -0.4052 N   0  0  0  0  0  0  0  0  0  0  0  0
   -2.2085   -0.0708   -0.2597 C   0  0  0  0  0  0  0  0  0  0  0  0
   -1.5957    1.0993    0.0476 N   0  0  0  0  0  0  0  0  0  0  0  0
   -0.2495    1.1678    0.2121 C   0  0  0  0  0  0  0  0  0  0  0  0
    0.4541    2.7132    0.6640 Cl  0  0  0  0  0  0  0  0  0  0  0  0
   -3.2817   -0.1010   -0.3885 H   0  0  0  0  0  0  0  0  0  0  0  0
  1  2  1  0
  2  3  2  0
  2  4  1  0
  4  5  2  0
  5  6  1  0
  5  7  1  0
  7  8  2  0
  8  9  1  0
  9 10  2  0
 10 11  1  0
 10  4  1  0
  8 12  1  0
M  CHG  2   1  -1   2   1
M  END
