
     RDKit          3D

 26 26  0  0  0  0  0  0  0  0999 V2000
   -1.6396    2.9899   -0.5432 C   0  0  0  0  0  0  0  0  0  0  0  0
   -1.8904    1.6146   -0.2721 O   0  0  0  0  0  0  0  0  0  0  0  0
   -0.8939    0.6391   -0.1046 C   0  0  0  0  0  0  0  0  0  0  0  0
    0.4757    0.9470   -0.1931 C   0  0  0  0  0  0  0  0  0  0  0  0
    1.4546   -0.0508   -0.0209 C   0  0  0  0  0  0  0  0  0  0  0  0
    1.0484   -1.3774    0.2441 C   0  0  0  0  0  0  0  0  0  0  0  0
    2.0185   -2.4799    0.4367 C   0  0  0  0  0  0  0  0  0  0  0  0
    3.2619   -2.2900    0.3737 O   0  0  0  0  0  0  0  0  0  0  0  0
   -0.3198   -1.6769    0.3309 C   0  0  0  0  0  0  0  0  0  0  0  0
   -1.2928   -0.6767    0.1581 C   0  0  0  0  0  0  0  0  0  0  0  0
   -2.6676   -0.9513    0.2403 O   0  0  0  0  0  0  0  0  0  0  0  0
   -3.2214   -2.2372    0.5005 C   0  0  0  0  0  0  0  0  0  0  0  0
    2.8256    0.2473   -0.1075 O   0  0  0  0  0  0  0  0  0  0  0  0
    3.3633    1.5400   -0.3687 C   0  0  0  0  0  0  0  0  0  0  0  0
   -1.0917    3.0963   -1.5033 H   0  0  0  0  0  0  0  0  0  0  0  0
   -1.0539    3.4420    0.2849 H   0  0  0  0  0  0  0  0  0  0  0  0
   -2.6076    3.5251   -0.6262 H   0  0  0  0  0  0  0  0  0  0  0  0
    0.7786    1.9629   -0.3958 H   0  0  0  0  0  0  0  0  0  0  0  0
    1.6597   -3.4815    0.6378 H   0  0  0  0  0  0  0  0  0  0  0  0
   -0.6221   -2.6959    0.5342 H   0  0  0  0  0  0  0  0  0  0  0  0
   -4.3279   -2.1600    0.5089 H   0  0  0  0  0  0  0  0  0  0  0  0
   -2.8836   -2.6051    1.4923 H   0  0  0  0  0  0  0  0  0  0  0  0
   -2.9213   -2.9506   -0.2959 H   0  0  0  0  0  0  0  0  0  0  0  0
    3.0572    2.2496    0.4287 H   0  0  0  0  0  0  0  0  0  0  0  0
    4.4706    1.4758   -0.3797 H   0  0  0  0  0  0  0  0  0  0  0  0
    3.0194    1.9039   -1.3600 H   0  0  0  0  0  0  0  0  0  0  0  0
  1  2  1  0
  2  3  1  0
  3  4  2  0
  4  5  1  0
  5  6  2  0
  6  7  1  0
  7  8  2  0
  6  9  1  0
  9 10  2  0
 10 11  1  0
 11 12  1  0
  5 13  1  0
 13 14  1  0
 10  3  1  0
  1 15  1  0
  1 16  1  0
  1 17  1  0
  4 18  1  0
  7 19  1  0
  9 20  1  0
 12 21  1  0
 12 22  1  0
 12 23  1  0
 14 24  1  0
 14 25  1  0
 14 26  1  0
M  END
