
     RDKit          3D

 22 24  0  0  0  0  0  0  0  0999 V2000
   -3.6441    0.4545    0.0341 C   0  0  0  0  0  0  0  0  0  0  0  0
   -2.5011    1.1439   -0.3858 C   0  0  0  0  0  0  0  0  0  0  0  0
   -1.2364    0.5763   -0.1961 C   0  0  0  0  0  0  0  0  0  0  0  0
   -0.1160    1.2330   -0.5983 N   0  0  0  0  0  0  0  0  0  0  0  0
    1.1173    0.6899   -0.4184 C   0  0  0  0  0  0  0  0  0  0  0  0
    2.2643    1.3738   -0.8359 C   0  0  0  0  0  0  0  0  0  0  0  0
    3.5261    0.8004   -0.6431 C   0  0  0  0  0  0  0  0  0  0  0  0
    3.6441   -0.4545   -0.0341 C   0  0  0  0  0  0  0  0  0  0  0  0
    2.5011   -1.1439    0.3858 C   0  0  0  0  0  0  0  0  0  0  0  0
    1.2364   -0.5763    0.1961 C   0  0  0  0  0  0  0  0  0  0  0  0
    0.1160   -1.2330    0.5983 N   0  0  0  0  0  0  0  0  0  0  0  0
   -1.1173   -0.6899    0.4184 C   0  0  0  0  0  0  0  0  0  0  0  0
   -2.2643   -1.3738    0.8359 C   0  0  0  0  0  0  0  0  0  0  0  0
   -3.5261   -0.8004    0.6431 C   0  0  0  0  0  0  0  0  0  0  0  0
   -4.6228    0.8930   -0.1124 H   0  0  0  0  0  0  0  0  0  0  0  0
   -2.6007    2.1143   -0.8561 H   0  0  0  0  0  0  0  0  0  0  0  0
    2.1812    2.3450   -1.3077 H   0  0  0  0  0  0  0  0  0  0  0  0
    4.4137    1.3290   -0.9659 H   0  0  0  0  0  0  0  0  0  0  0  0
    4.6228   -0.8930    0.1124 H   0  0  0  0  0  0  0  0  0  0  0  0
    2.6007   -2.1143    0.8561 H   0  0  0  0  0  0  0  0  0  0  0  0
   -2.1812   -2.3450    1.3077 H   0  0  0  0  0  0  0  0  0  0  0  0
   -4.4137   -1.3290    0.9658 H   0  0  0  0  0  0  0  0  0  0  0  0
  1  2  2  0
  2  3  1  0
  3  4  2  0
  4  5  1  0
  5  6  2  0
  6  7  1  0
  7  8  2  0
  8  9  1  0
  9 10  2  0
 10 11  1  0
 11 12  2  0
 12 13  1  0
 13 14  2  0
 14  1  1  0
 12  3  1  0
 10  5  1  0
  1 15  1  0
  2 16  1  0
  6 17  1  0
  7 18  1  0
  8 19  1  0
  9 20  1  0
 13 21  1  0
 14 22  1  0
M  END
