
     RDKit          3D

 21 21  0  0  0  0  0  0  0  0999 V2000
   -3.2829    0.6515   -0.6519 C   0  0  0  0  0  0  0  0  0  0  0  0
   -2.3154   -0.2966    0.0505 C   0  0  0  0  0  0  0  0  0  0  0  0
   -0.8649    0.1708   -0.1138 C   0  0  0  0  0  0  0  0  0  0  0  0
    0.1024   -0.7834    0.5919 C   0  0  0  0  0  0  0  0  0  0  0  0
    1.5134   -0.3125    0.4290 C   0  0  0  0  0  0  0  0  0  0  0  0
    2.3556   -0.6303   -0.6175 C   0  0  0  0  0  0  0  0  0  0  0  0
    3.5296    0.0460   -0.3652 C   0  0  0  0  0  0  0  0  0  0  0  0
    3.3291    0.7359    0.8138 C   0  0  0  0  0  0  0  0  0  0  0  0
    2.1163    0.5043    1.2616 O   0  0  0  0  0  0  0  0  0  0  0  0
   -3.0606    0.6937   -1.7395 H   0  0  0  0  0  0  0  0  0  0  0  0
   -4.3235    0.2884   -0.5161 H   0  0  0  0  0  0  0  0  0  0  0  0
   -3.2039    1.6724   -0.2211 H   0  0  0  0  0  0  0  0  0  0  0  0
   -2.4326   -1.3145   -0.3813 H   0  0  0  0  0  0  0  0  0  0  0  0
   -2.5753   -0.3401    1.1308 H   0  0  0  0  0  0  0  0  0  0  0  0
   -0.7552    1.1909    0.3172 H   0  0  0  0  0  0  0  0  0  0  0  0
   -0.6128    0.2154   -1.1968 H   0  0  0  0  0  0  0  0  0  0  0  0
   -0.1384   -0.8310    1.6760 H   0  0  0  0  0  0  0  0  0  0  0  0
    0.0037   -1.8065    0.1676 H   0  0  0  0  0  0  0  0  0  0  0  0
    2.1397   -1.2706   -1.4626 H   0  0  0  0  0  0  0  0  0  0  0  0
    4.4257    0.0409   -0.9711 H   0  0  0  0  0  0  0  0  0  0  0  0
    4.0501    1.3753    1.3053 H   0  0  0  0  0  0  0  0  0  0  0  0
  1  2  1  0
  2  3  1  0
  3  4  1  0
  4  5  1  0
  5  6  2  0
  6  7  1  0
  7  8  2  0
  8  9  1  0
  9  5  1  0
  1 10  1  0
  1 11  1  0
  1 12  1  0
  2 13  1  0
  2 14  1  0
  3 15  1  0
  3 16  1  0
  4 17  1  0
  4 18  1  0
  6 19  1  0
  7 20  1  0
  8 21  1  0
M  END
