
     RDKit          3D

 13 13  0  0  0  0  0  0  0  0999 V2000
   -3.5854   -0.0983    0.2312 O   0  0  0  0  0  1  0  0  0  0  0  0
   -2.5856    0.7679   -0.1456 N   0  0  0  0  0  4  0  0  0  0  0  0
   -2.8839    1.9123   -0.5434 O   0  0  0  0  0  0  0  0  0  0  0  0
   -1.2157    0.3613   -0.0822 C   0  0  0  0  0  0  0  0  0  0  0  0
   -0.7653   -0.8827    0.3424 C   0  0  0  0  0  0  0  0  0  0  0  0
    0.6291   -0.9992    0.2987 C   0  0  0  0  0  0  0  0  0  0  0  0
    1.2619    0.1534   -0.1596 C   0  0  0  0  0  0  0  0  0  0  0  0
    0.1005    1.3197   -0.5121 S   0  0  0  0  0  0  0  0  0  0  0  0
    2.7065    0.3420   -0.3173 C   0  0  0  0  0  0  0  0  0  0  0  0
    3.5102   -0.5838   -0.0302 O   0  0  0  0  0  0  0  0  0  0  0  0
   -1.4175   -1.6802    0.6728 H   0  0  0  0  0  0  0  0  0  0  0  0
    1.1560   -1.8976    0.5929 H   0  0  0  0  0  0  0  0  0  0  0  0
    3.0892    1.2851   -0.6839 H   0  0  0  0  0  0  0  0  0  0  0  0
  1  2  1  0
  2  3  2  0
  2  4  1  0
  4  5  2  0
  5  6  1  0
  6  7  2  0
  7  8  1  0
  7  9  1  0
  9 10  2  0
  8  4  1  0
  5 11  1  0
  6 12  1  0
  9 13  1  0
M  CHG  2   1  -1   2   1
M  END
