
     RDKit          3D

 26 27  0  0  0  0  0  0  0  0999 V2000
   -0.3969    0.2979   -0.5406 C   0  0  0  0  0  0  0  0  0  0  0  0
    0.3969   -0.2979    0.6257 C   0  0  0  0  0  0  0  0  0  0  0  0
    1.8750   -0.1224    0.4042 C   0  0  0  0  0  0  0  0  0  0  0  0
    2.6076   -1.0915   -0.2969 C   0  0  0  0  0  0  0  0  0  0  0  0
    3.9725   -0.8937   -0.5201 C   0  0  0  0  0  0  0  0  0  0  0  0
    4.5810    0.2353   -0.0691 N   0  0  0  0  0  0  0  0  0  0  0  0
    3.8925    1.1963    0.6025 C   0  0  0  0  0  0  0  0  0  0  0  0
    2.5262    1.0383    0.8471 C   0  0  0  0  0  0  0  0  0  0  0  0
   -1.8750    0.1224   -0.3191 C   0  0  0  0  0  0  0  0  0  0  0  0
   -2.6077    1.0917    0.3818 C   0  0  0  0  0  0  0  0  0  0  0  0
   -3.9725    0.8939    0.6050 C   0  0  0  0  0  0  0  0  0  0  0  0
   -4.5810   -0.2353    0.1542 N   0  0  0  0  0  0  0  0  0  0  0  0
   -3.8925   -1.1964   -0.5171 C   0  0  0  0  0  0  0  0  0  0  0  0
   -2.5261   -1.0385   -0.7617 C   0  0  0  0  0  0  0  0  0  0  0  0
   -0.1580    1.3797   -0.6429 H   0  0  0  0  0  0  0  0  0  0  0  0
   -0.0976   -0.1984   -1.4903 H   0  0  0  0  0  0  0  0  0  0  0  0
    0.0976    0.1983    1.5754 H   0  0  0  0  0  0  0  0  0  0  0  0
    0.1580   -1.3798    0.7281 H   0  0  0  0  0  0  0  0  0  0  0  0
    2.1270   -1.9886   -0.6673 H   0  0  0  0  0  0  0  0  0  0  0  0
    4.5477   -1.6372   -1.0555 H   0  0  0  0  0  0  0  0  0  0  0  0
    4.4052    2.0856    0.9440 H   0  0  0  0  0  0  0  0  0  0  0  0
    1.9815    1.8120    1.3741 H   0  0  0  0  0  0  0  0  0  0  0  0
   -2.1270    1.9888    0.7520 H   0  0  0  0  0  0  0  0  0  0  0  0
   -4.5477    1.6374    1.1403 H   0  0  0  0  0  0  0  0  0  0  0  0
   -4.4052   -2.0857   -0.8584 H   0  0  0  0  0  0  0  0  0  0  0  0
   -1.9815   -1.8123   -1.2885 H   0  0  0  0  0  0  0  0  0  0  0  0
  1  2  1  0
  2  3  1  0
  3  4  2  0
  4  5  1  0
  5  6  2  0
  6  7  1  0
  7  8  2  0
  1  9  1  0
  9 10  2  0
 10 11  1  0
 11 12  2  0
 12 13  1  0
 13 14  2  0
  8  3  1  0
 14  9  1  0
  1 15  1  0
  1 16  1  0
  2 17  1  0
  2 18  1  0
  4 19  1  0
  5 20  1  0
  7 21  1  0
  8 22  1  0
 10 23  1  0
 11 24  1  0
 13 25  1  0
 14 26  1  0
M  END
