
     RDKit          3D

 40 40  0  0  0  0  0  0  0  0999 V2000
   -5.4307   -0.9207    0.1813 C   0  0  0  0  0  0  0  0  0  0  0  0
   -3.9578   -0.5891    0.4073 C   0  0  0  0  0  0  0  0  0  0  0  0
   -3.6725    0.8933    0.1313 C   0  0  0  0  0  0  0  0  0  0  0  0
   -2.3451    1.4005    0.7347 C   0  0  0  0  0  0  0  0  0  0  0  0
   -1.0185    0.8257    0.1585 C   0  0  0  0  0  0  0  0  0  0  0  0
   -0.9669    0.7590   -1.3863 C   0  0  0  0  0  0  0  0  0  0  0  0
   -1.0587    2.1384   -2.0401 C   0  0  0  0  0  0  0  0  0  0  0  0
   -0.6472   -0.5374    0.7845 C   0  0  0  0  0  0  0  0  0  0  0  0
    0.7282   -0.8430    0.5547 O   0  0  0  0  0  0  0  0  0  0  0  0
    1.7818   -0.2594    1.2699 C   0  0  0  0  0  0  0  0  0  0  0  0
    1.5386    0.5244    2.2289 O   0  0  0  0  0  0  0  0  0  0  0  0
    3.1802   -0.5686    0.9003 C   0  0  0  0  0  0  0  0  0  0  0  0
    4.2540   -0.0099    1.6181 C   0  0  0  0  0  0  0  0  0  0  0  0
    5.5735   -0.3046    1.2616 C   0  0  0  0  0  0  0  0  0  0  0  0
    5.8389   -1.1577    0.1867 C   0  0  0  0  0  0  0  0  0  0  0  0
    7.1586   -1.4420   -0.1569 O   0  0  0  0  0  0  0  0  0  0  0  0
    4.7763   -1.7177   -0.5339 C   0  0  0  0  0  0  0  0  0  0  0  0
    3.4554   -1.4255   -0.1803 C   0  0  0  0  0  0  0  0  0  0  0  0
   -5.7261   -0.6731   -0.8607 H   0  0  0  0  0  0  0  0  0  0  0  0
   -5.5979   -2.0054    0.3503 H   0  0  0  0  0  0  0  0  0  0  0  0
   -6.0688   -0.3505    0.8896 H   0  0  0  0  0  0  0  0  0  0  0  0
   -3.3630   -1.2166   -0.2866 H   0  0  0  0  0  0  0  0  0  0  0  0
   -3.6898   -0.8456    1.4553 H   0  0  0  0  0  0  0  0  0  0  0  0
   -4.4838    1.5023    0.5881 H   0  0  0  0  0  0  0  0  0  0  0  0
   -3.7131    1.0879   -0.9605 H   0  0  0  0  0  0  0  0  0  0  0  0
   -2.3692    1.2539    1.8367 H   0  0  0  0  0  0  0  0  0  0  0  0
   -2.3246    2.5028    0.5891 H   0  0  0  0  0  0  0  0  0  0  0  0
   -0.2243    1.5369    0.4774 H   0  0  0  0  0  0  0  0  0  0  0  0
   -1.7697    0.1014   -1.7806 H   0  0  0  0  0  0  0  0  0  0  0  0
    0.0007    0.3083   -1.6980 H   0  0  0  0  0  0  0  0  0  0  0  0
   -0.9416    2.0344   -3.1393 H   0  0  0  0  0  0  0  0  0  0  0  0
   -2.0425    2.6098   -1.8398 H   0  0  0  0  0  0  0  0  0  0  0  0
   -0.2514    2.8001   -1.6606 H   0  0  0  0  0  0  0  0  0  0  0  0
   -0.8502   -0.5450    1.8778 H   0  0  0  0  0  0  0  0  0  0  0  0
   -1.2475   -1.3474    0.3300 H   0  0  0  0  0  0  0  0  0  0  0  0
    4.0754    0.6542    2.4546 H   0  0  0  0  0  0  0  0  0  0  0  0
    6.3912    0.1311    1.8217 H   0  0  0  0  0  0  0  0  0  0  0  0
    7.3836   -2.0564   -0.9307 H   0  0  0  0  0  0  0  0  0  0  0  0
    4.9726   -2.3791   -1.3682 H   0  0  0  0  0  0  0  0  0  0  0  0
    2.6518   -1.8698   -0.7541 H   0  0  0  0  0  0  0  0  0  0  0  0
  1  2  1  0
  2  3  1  0
  3  4  1  0
  4  5  1  0
  5  6  1  0
  6  7  1  0
  5  8  1  0
  8  9  1  0
  9 10  1  0
 10 11  2  0
 10 12  1  0
 12 13  2  0
 13 14  1  0
 14 15  2  0
 15 16  1  0
 15 17  1  0
 17 18  2  0
 18 12  1  0
  1 19  1  0
  1 20  1  0
  1 21  1  0
  2 22  1  0
  2 23  1  0
  3 24  1  0
  3 25  1  0
  4 26  1  0
  4 27  1  0
  5 28  1  0
  6 29  1  0
  6 30  1  0
  7 31  1  0
  7 32  1  0
  7 33  1  0
  8 34  1  0
  8 35  1  0
 13 36  1  0
 14 37  1  0
 16 38  1  0
 17 39  1  0
 18 40  1  0
M  END
