
     RDKit          3D

 16 16  0  0  0  0  0  0  0  0999 V2000
   -2.6149   -0.0511    0.9299 O   0  0  0  0  0  0  0  0  0  0  0  0
   -1.9192   -0.6927   -0.1035 C   0  0  0  0  0  0  0  0  0  0  0  0
   -0.4835   -0.2336   -0.1290 C   0  0  0  0  0  0  0  0  0  0  0  0
    0.5196   -1.0802    0.3755 C   0  0  0  0  0  0  0  0  0  0  0  0
    1.8551   -0.6702    0.3833 C   0  0  0  0  0  0  0  0  0  0  0  0
    2.2027    0.5907   -0.1031 C   0  0  0  0  0  0  0  0  0  0  0  0
    1.2150    1.4469   -0.5944 C   0  0  0  0  0  0  0  0  0  0  0  0
   -0.1273    1.0474   -0.6072 C   0  0  0  0  0  0  0  0  0  0  0  0
   -1.5567    2.4285   -1.3505 I   0  0  0  0  0  0  0  0  0  0  0  0
   -2.3173   -0.4750    1.7771 H   0  0  0  0  0  0  0  0  0  0  0  0
   -1.9874   -1.7980    0.0182 H   0  0  0  0  0  0  0  0  0  0  0  0
   -2.4075   -0.4555   -1.0715 H   0  0  0  0  0  0  0  0  0  0  0  0
    0.2685   -2.0596    0.7638 H   0  0  0  0  0  0  0  0  0  0  0  0
    2.6211   -1.3303    0.7695 H   0  0  0  0  0  0  0  0  0  0  0  0
    3.2379    0.9069   -0.0953 H   0  0  0  0  0  0  0  0  0  0  0  0
    1.4938    2.4257   -0.9628 H   0  0  0  0  0  0  0  0  0  0  0  0
  1  2  1  0
  2  3  1  0
  3  4  2  0
  4  5  1  0
  5  6  2  0
  6  7  1  0
  7  8  2  0
  8  9  1  0
  8  3  1  0
  1 10  1  0
  2 11  1  0
  2 12  1  0
  4 13  1  0
  5 14  1  0
  6 15  1  0
  7 16  1  0
M  END
