
     RDKit          3D

 25 26  0  0  0  0  0  0  0  0999 V2000
    4.0253   -0.2359    0.2533 C   0  0  0  0  0  0  0  0  0  0  0  0
    2.7238   -1.0144    0.3559 C   0  0  0  0  0  0  0  0  0  0  0  0
    1.6263   -0.1386    0.1117 O   0  0  0  0  0  0  0  0  0  0  0  0
    0.2750   -0.5249    0.1271 C   0  0  0  0  0  0  0  0  0  0  0  0
   -0.1099   -1.8537    0.3946 C   0  0  0  0  0  0  0  0  0  0  0  0
   -1.4583   -2.2148    0.4048 C   0  0  0  0  0  0  0  0  0  0  0  0
   -2.4450   -1.2632    0.1497 C   0  0  0  0  0  0  0  0  0  0  0  0
   -2.0895    0.0653   -0.1192 C   0  0  0  0  0  0  0  0  0  0  0  0
   -0.7211    0.4415   -0.1316 C   0  0  0  0  0  0  0  0  0  0  0  0
   -0.3817    1.7806   -0.4035 C   0  0  0  0  0  0  0  0  0  0  0  0
   -1.3799    2.7249   -0.6576 C   0  0  0  0  0  0  0  0  0  0  0  0
   -2.7243    2.3490   -0.6440 C   0  0  0  0  0  0  0  0  0  0  0  0
   -3.0807    1.0256   -0.3763 C   0  0  0  0  0  0  0  0  0  0  0  0
    4.8840   -0.9139    0.4428 H   0  0  0  0  0  0  0  0  0  0  0  0
    4.0382    0.5820    1.0045 H   0  0  0  0  0  0  0  0  0  0  0  0
    4.1271    0.2005   -0.7629 H   0  0  0  0  0  0  0  0  0  0  0  0
    2.6396   -1.4487    1.3757 H   0  0  0  0  0  0  0  0  0  0  0  0
    2.7287   -1.8315   -0.3977 H   0  0  0  0  0  0  0  0  0  0  0  0
    0.6272   -2.6184    0.5968 H   0  0  0  0  0  0  0  0  0  0  0  0
   -1.7397   -3.2394    0.6118 H   0  0  0  0  0  0  0  0  0  0  0  0
   -3.4856   -1.5654    0.1627 H   0  0  0  0  0  0  0  0  0  0  0  0
    0.6522    2.1026   -0.4211 H   0  0  0  0  0  0  0  0  0  0  0  0
   -1.1100    3.7523   -0.8658 H   0  0  0  0  0  0  0  0  0  0  0  0
   -3.4924    3.0856   -0.8417 H   0  0  0  0  0  0  0  0  0  0  0  0
   -4.1294    0.7528   -0.3701 H   0  0  0  0  0  0  0  0  0  0  0  0
  1  2  1  0
  2  3  1  0
  3  4  1  0
  4  5  2  0
  5  6  1  0
  6  7  2  0
  7  8  1  0
  8  9  2  0
  9 10  1  0
 10 11  2  0
 11 12  1  0
 12 13  2  0
  9  4  1  0
 13  8  1  0
  1 14  1  0
  1 15  1  0
  1 16  1  0
  2 17  1  0
  2 18  1  0
  5 19  1  0
  6 20  1  0
  7 21  1  0
 10 22  1  0
 11 23  1  0
 12 24  1  0
 13 25  1  0
M  END
