
     RDKit          3D

 18 18  0  0  0  0  0  0  0  0999 V2000
   -2.0212    0.6320   -0.1118 N   0  0  0  0  0  0  0  0  0  0  0  0
   -0.6525    0.1921   -0.0810 C   0  0  0  0  0  0  0  0  0  0  0  0
    0.3939    1.0972   -0.3911 C   0  0  0  0  0  0  0  0  0  0  0  0
    1.7268    0.7204   -0.1626 C   0  0  0  0  0  0  0  0  0  0  0  0
    2.0325   -0.5453    0.3341 C   0  0  0  0  0  0  0  0  0  0  0  0
    3.7052   -1.0005    0.6048 Cl  0  0  0  0  0  0  0  0  0  0  0  0
    1.0119   -1.4592    0.5898 C   0  0  0  0  0  0  0  0  0  0  0  0
   -0.3302   -1.1138    0.3706 C   0  0  0  0  0  0  0  0  0  0  0  0
   -1.3461   -2.1027    0.6009 N   0  0  0  0  0  4  0  0  0  0  0  0
   -1.1907   -3.0229    1.6120 O   0  0  0  0  0  1  0  0  0  0  0  0
   -2.2481   -2.2826   -0.2431 O   0  0  0  0  0  0  0  0  0  0  0  0
    0.1207    2.3904   -0.9539 N   0  0  0  0  0  4  0  0  0  0  0  0
   -0.7612    2.5113   -2.0031 O   0  0  0  0  0  1  0  0  0  0  0  0
    0.8338    3.3691   -0.6503 O   0  0  0  0  0  0  0  0  0  0  0  0
   -2.2734    1.6249   -0.3049 H   0  0  0  0  0  0  0  0  0  0  0  0
   -2.7999    0.0317    0.2346 H   0  0  0  0  0  0  0  0  0  0  0  0
    2.5320    1.4085   -0.3889 H   0  0  0  0  0  0  0  0  0  0  0  0
    1.2664   -2.4505    0.9438 H   0  0  0  0  0  0  0  0  0  0  0  0
  1  2  1  0
  2  3  2  0
  3  4  1  0
  4  5  2  0
  5  6  1  0
  5  7  1  0
  7  8  2  0
  8  9  1  0
  9 10  1  0
  9 11  2  0
  3 12  1  0
 12 13  1  0
 12 14  2  0
  8  2  1  0
  1 15  1  0
  1 16  1  0
  4 17  1  0
  7 18  1  0
M  CHG  4   9   1  10  -1  12   1  13  -1
M  END
