
     RDKit          3D

 18 18  0  0  0  0  0  0  0  0999 V2000
    1.9162    0.6215    0.2991 C   0  0  0  0  0  0  0  0  0  0  0  0
    0.4573    0.2970    0.0867 C   0  0  0  0  0  0  0  0  0  0  0  0
    0.0265   -1.0458   -0.0864 C   0  0  0  0  0  0  0  0  0  0  0  0
   -1.3485   -1.3264   -0.1541 C   0  0  0  0  0  0  0  0  0  0  0  0
   -2.2873   -0.2985   -0.1030 C   0  0  0  0  0  0  0  0  0  0  0  0
   -1.8681    1.0253   -0.0014 C   0  0  0  0  0  0  0  0  0  0  0  0
   -0.5076    1.3365    0.0775 C   0  0  0  0  0  0  0  0  0  0  0  0
   -0.1513    2.6862    0.1376 O   0  0  0  0  0  0  0  0  0  0  0  0
    0.9650   -2.1270   -0.2195 N   0  0  0  0  0  4  0  0  0  0  0  0
    2.0641   -1.9913   -1.0363 O   0  0  0  0  0  1  0  0  0  0  0  0
    0.6879   -3.2567    0.2341 O   0  0  0  0  0  0  0  0  0  0  0  0
    2.4771   -0.2470    0.7000 H   0  0  0  0  0  0  0  0  0  0  0  0
    2.0344    1.4201    1.0603 H   0  0  0  0  0  0  0  0  0  0  0  0
    2.3721    0.9478   -0.6589 H   0  0  0  0  0  0  0  0  0  0  0  0
   -1.6940   -2.3457   -0.2730 H   0  0  0  0  0  0  0  0  0  0  0  0
   -3.3434   -0.5275   -0.1657 H   0  0  0  0  0  0  0  0  0  0  0  0
   -2.6053    1.8184    0.0084 H   0  0  0  0  0  0  0  0  0  0  0  0
    0.8050    3.0130    0.0949 H   0  0  0  0  0  0  0  0  0  0  0  0
  1  2  1  0
  2  3  2  0
  3  4  1  0
  4  5  2  0
  5  6  1  0
  6  7  2  0
  7  8  1  0
  3  9  1  0
  9 10  1  0
  9 11  2  0
  7  2  1  0
  1 12  1  0
  1 13  1  0
  1 14  1  0
  4 15  1  0
  5 16  1  0
  6 17  1  0
  8 18  1  0
M  CHG  2   9   1  10  -1
M  END
