
     RDKit          3D

 13 13  0  0  0  0  0  0  0  0999 V2000
   -3.0783    0.2574    0.6014 O   0  0  0  0  0  1  0  0  0  0  0  0
   -1.9906    0.8653    0.0191 N   0  0  0  0  0  4  0  0  0  0  0  0
   -2.1007    2.0492   -0.3622 O   0  0  0  0  0  0  0  0  0  0  0  0
   -0.7070    0.2133   -0.0083 C   0  0  0  0  0  0  0  0  0  0  0  0
   -0.5813   -1.1931   -0.0856 C   0  0  0  0  0  0  0  0  0  0  0  0
   -1.9708   -2.2576   -0.2426 Cl  0  0  0  0  0  0  0  0  0  0  0  0
    0.6543   -1.7627   -0.0955 N   0  0  0  0  0  0  0  0  0  0  0  0
    1.7924   -1.0243   -0.0325 C   0  0  0  0  0  0  0  0  0  0  0  0
    1.7186    0.3652    0.0313 C   0  0  0  0  0  0  0  0  0  0  0  0
    0.4684    0.9831    0.0393 C   0  0  0  0  0  0  0  0  0  0  0  0
    2.7552   -1.5175   -0.0399 H   0  0  0  0  0  0  0  0  0  0  0  0
    2.6225    0.9589    0.0766 H   0  0  0  0  0  0  0  0  0  0  0  0
    0.4176    2.0629    0.0989 H   0  0  0  0  0  0  0  0  0  0  0  0
  1  2  1  0
  2  3  2  0
  2  4  1  0
  4  5  2  0
  5  6  1  0
  5  7  1  0
  7  8  2  0
  8  9  1  0
  9 10  2  0
 10  4  1  0
  8 11  1  0
  9 12  1  0
 10 13  1  0
M  CHG  2   1  -1   2   1
M  END
