
     RDKit          3D

 24 24  0  0  0  0  0  0  0  0999 V2000
    3.9416   -0.1909    1.0790 C   0  0  0  0  0  0  0  0  0  0  0  0
    3.1048    0.1175   -0.1274 C   0  0  0  0  0  0  0  0  0  0  0  0
    3.6271    0.1058   -1.2318 O   0  0  0  0  0  0  0  0  0  0  0  0
    1.6416    0.4512   -0.0031 C   0  0  0  0  0  0  0  0  0  0  0  0
    0.7790   -0.6538   -0.6200 C   0  0  0  0  0  0  0  0  0  0  0  0
   -0.6831   -0.3228   -0.4827 C   0  0  0  0  0  0  0  0  0  0  0  0
   -1.3953   -0.7198    0.6610 C   0  0  0  0  0  0  0  0  0  0  0  0
   -2.7452   -0.3840    0.8025 C   0  0  0  0  0  0  0  0  0  0  0  0
   -3.3935    0.3604   -0.1925 C   0  0  0  0  0  0  0  0  0  0  0  0
   -4.7381    0.7007   -0.0625 O   0  0  0  0  0  0  0  0  0  0  0  0
   -2.6841    0.7687   -1.3266 C   0  0  0  0  0  0  0  0  0  0  0  0
   -1.3341    0.4342   -1.4705 C   0  0  0  0  0  0  0  0  0  0  0  0
    3.3390   -0.1586    2.0105 H   0  0  0  0  0  0  0  0  0  0  0  0
    4.7633    0.5512    1.1603 H   0  0  0  0  0  0  0  0  0  0  0  0
    4.3785   -1.2063    0.9766 H   0  0  0  0  0  0  0  0  0  0  0  0
    1.4479    1.4155   -0.5217 H   0  0  0  0  0  0  0  0  0  0  0  0
    1.3636    0.5805    1.0656 H   0  0  0  0  0  0  0  0  0  0  0  0
    0.9950   -1.6215   -0.1152 H   0  0  0  0  0  0  0  0  0  0  0  0
    1.0356   -0.7771   -1.6955 H   0  0  0  0  0  0  0  0  0  0  0  0
   -0.9048   -1.2872    1.4423 H   0  0  0  0  0  0  0  0  0  0  0  0
   -3.2849   -0.6993    1.6864 H   0  0  0  0  0  0  0  0  0  0  0  0
   -5.2791    0.4207    0.7473 H   0  0  0  0  0  0  0  0  0  0  0  0
   -3.1786    1.3487   -2.0955 H   0  0  0  0  0  0  0  0  0  0  0  0
   -0.7960    0.7658   -2.3500 H   0  0  0  0  0  0  0  0  0  0  0  0
  1  2  1  0
  2  3  2  0
  2  4  1  0
  4  5  1  0
  5  6  1  0
  6  7  2  0
  7  8  1  0
  8  9  2  0
  9 10  1  0
  9 11  1  0
 11 12  2  0
 12  6  1  0
  1 13  1  0
  1 14  1  0
  1 15  1  0
  4 16  1  0
  4 17  1  0
  5 18  1  0
  5 19  1  0
  7 20  1  0
  8 21  1  0
 10 22  1  0
 11 23  1  0
 12 24  1  0
M  END
