
     RDKit          3D

 15 15  0  0  0  0  0  0  0  0999 V2000
    2.2386   -0.4659   -0.6546 C   0  0  0  0  0  0  0  0  0  0  0  0
    0.8824   -0.0463   -0.1845 C   0  0  0  0  0  0  0  0  0  0  0  0
    0.7115    1.1642    0.4946 C   0  0  0  0  0  0  0  0  0  0  0  0
   -0.5716    1.5161    0.9152 C   0  0  0  0  0  0  0  0  0  0  0  0
   -1.6185    0.6887    0.6616 N   0  0  0  0  0  0  0  0  0  0  0  0
   -1.4376   -0.4853    0.0003 C   0  0  0  0  0  0  0  0  0  0  0  0
   -0.1943   -0.8442   -0.4169 N   0  0  0  0  0  0  0  0  0  0  0  0
   -2.5502   -1.3390   -0.2555 N   0  0  0  0  0  0  0  0  0  0  0  0
   -0.8405    3.0216    1.7700 Cl  0  0  0  0  0  0  0  0  0  0  0  0
    2.6400    0.2888   -1.3632 H   0  0  0  0  0  0  0  0  0  0  0  0
    2.1864   -1.4479   -1.1709 H   0  0  0  0  0  0  0  0  0  0  0  0
    2.9253   -0.5553    0.2133 H   0  0  0  0  0  0  0  0  0  0  0  0
    1.5541    1.8160    0.6911 H   0  0  0  0  0  0  0  0  0  0  0  0
   -3.5076   -1.0693    0.0622 H   0  0  0  0  0  0  0  0  0  0  0  0
   -2.4180   -2.2420   -0.7629 H   0  0  0  0  0  0  0  0  0  0  0  0
  1  2  1  0
  2  3  2  0
  3  4  1  0
  4  5  2  0
  5  6  1  0
  6  7  2  0
  6  8  1  0
  4  9  1  0
  7  2  1  0
  1 10  1  0
  1 11  1  0
  1 12  1  0
  3 13  1  0
  8 14  1  0
  8 15  1  0
M  END
