
     RDKit          3D

 28 29  0  0  0  0  0  0  0  0999 V2000
   -4.4387   -0.7035    0.6713 C   0  0  0  0  0  0  0  0  0  0  0  0
   -3.7538   -0.5070   -0.6771 C   0  0  0  0  0  0  0  0  0  0  0  0
   -2.2738   -0.2993   -0.4979 C   0  0  0  0  0  0  0  0  0  0  0  0
   -1.4028   -1.3983   -0.4707 C   0  0  0  0  0  0  0  0  0  0  0  0
   -0.0320   -1.2088   -0.2737 C   0  0  0  0  0  0  0  0  0  0  0  0
    0.4914    0.0838   -0.0895 C   0  0  0  0  0  0  0  0  0  0  0  0
   -0.3882    1.1814   -0.1037 C   0  0  0  0  0  0  0  0  0  0  0  0
   -1.7586    0.9905   -0.3019 C   0  0  0  0  0  0  0  0  0  0  0  0
    1.9479    0.2854    0.1213 C   0  0  0  0  0  0  0  0  0  0  0  0
    2.8877   -0.4573   -0.6188 C   0  0  0  0  0  0  0  0  0  0  0  0
    4.2582   -0.2653   -0.4188 C   0  0  0  0  0  0  0  0  0  0  0  0
    4.7059    0.6667    0.5200 C   0  0  0  0  0  0  0  0  0  0  0  0
    3.7839    1.4092    1.2609 C   0  0  0  0  0  0  0  0  0  0  0  0
    2.4122    1.2221    1.0645 C   0  0  0  0  0  0  0  0  0  0  0  0
   -4.2913    0.1918    1.3125 H   0  0  0  0  0  0  0  0  0  0  0  0
   -4.0251   -1.5963    1.1872 H   0  0  0  0  0  0  0  0  0  0  0  0
   -5.5277   -0.8548    0.5167 H   0  0  0  0  0  0  0  0  0  0  0  0
   -4.2035    0.3695   -1.1925 H   0  0  0  0  0  0  0  0  0  0  0  0
   -3.9404   -1.3975   -1.3163 H   0  0  0  0  0  0  0  0  0  0  0  0
   -1.7860   -2.4034   -0.5975 H   0  0  0  0  0  0  0  0  0  0  0  0
    0.6159   -2.0758   -0.2446 H   0  0  0  0  0  0  0  0  0  0  0  0
   -0.0148    2.1898    0.0234 H   0  0  0  0  0  0  0  0  0  0  0  0
   -2.4184    1.8495   -0.3046 H   0  0  0  0  0  0  0  0  0  0  0  0
    2.5634   -1.1729   -1.3638 H   0  0  0  0  0  0  0  0  0  0  0  0
    4.9738   -0.8376   -0.9950 H   0  0  0  0  0  0  0  0  0  0  0  0
    5.7672    0.8134    0.6735 H   0  0  0  0  0  0  0  0  0  0  0  0
    4.1321    2.1284    1.9910 H   0  0  0  0  0  0  0  0  0  0  0  0
    1.7156    1.7963    1.6623 H   0  0  0  0  0  0  0  0  0  0  0  0
  1  2  1  0
  2  3  1  0
  3  4  2  0
  4  5  1  0
  5  6  2  0
  6  7  1  0
  7  8  2  0
  6  9  1  0
  9 10  2  0
 10 11  1  0
 11 12  2  0
 12 13  1  0
 13 14  2  0
  8  3  1  0
 14  9  1  0
  1 15  1  0
  1 16  1  0
  1 17  1  0
  2 18  1  0
  2 19  1  0
  4 20  1  0
  5 21  1  0
  7 22  1  0
  8 23  1  0
 10 24  1  0
 11 25  1  0
 12 26  1  0
 13 27  1  0
 14 28  1  0
M  END
