
     RDKit          3D

 15 15  0  0  0  0  0  0  0  0999 V2000
    2.2357   -0.4694   -0.1992 N   0  0  0  0  0  0  0  0  0  0  0  0
    0.8131   -0.3141   -0.1049 C   0  0  0  0  0  0  0  0  0  0  0  0
   -0.0145   -1.4269   -0.3226 C   0  0  0  0  0  0  0  0  0  0  0  0
   -1.4037   -1.3051   -0.2373 C   0  0  0  0  0  0  0  0  0  0  0  0
   -1.9814   -0.0699    0.0665 C   0  0  0  0  0  0  0  0  0  0  0  0
   -3.7261    0.0798    0.1728 Cl  0  0  0  0  0  0  0  0  0  0  0  0
   -1.1687    1.0465    0.2855 C   0  0  0  0  0  0  0  0  0  0  0  0
    0.2267    0.9339    0.2021 C   0  0  0  0  0  0  0  0  0  0  0  0
    1.0331    2.1071    0.4343 C   0  0  0  0  0  0  0  0  0  0  0  0
    1.6794    3.0488    0.6208 N   0  0  0  0  0  0  0  0  0  0  0  0
    2.6539   -1.3990   -0.4271 H   0  0  0  0  0  0  0  0  0  0  0  0
    2.8890    0.3299   -0.0453 H   0  0  0  0  0  0  0  0  0  0  0  0
    0.4185   -2.3908   -0.5589 H   0  0  0  0  0  0  0  0  0  0  0  0
   -2.0297   -2.1717   -0.4076 H   0  0  0  0  0  0  0  0  0  0  0  0
   -1.6254    2.0009    0.5207 H   0  0  0  0  0  0  0  0  0  0  0  0
  1  2  1  0
  2  3  2  0
  3  4  1  0
  4  5  2  0
  5  6  1  0
  5  7  1  0
  7  8  2  0
  8  9  1  0
  9 10  3  0
  8  2  1  0
  1 11  1  0
  1 12  1  0
  3 13  1  0
  4 14  1  0
  7 15  1  0
M  END
