
     RDKit          3D

 13 12  0  0  0  0  0  0  0  0999 V2000
   -2.1124    0.0436    0.2024 C   0  0  0  0  0  0  0  0  0  0  0  0
   -0.6543    0.2150    0.4963 C   0  0  0  0  0  0  0  0  0  0  0  0
    0.2738   -0.4425   -0.2116 C   0  0  0  0  0  0  0  0  0  0  0  0
    1.7380   -0.2807    0.0821 C   0  0  0  0  0  0  0  0  0  0  0  0
    2.1397    1.0437   -0.1411 O   0  0  0  0  0  0  0  0  0  0  0  0
   -2.3279    0.3563   -0.8411 H   0  0  0  0  0  0  0  0  0  0  0  0
   -2.7106    0.6708    0.8959 H   0  0  0  0  0  0  0  0  0  0  0  0
   -2.4038   -1.0195    0.3376 H   0  0  0  0  0  0  0  0  0  0  0  0
   -0.3548    0.8850    1.2979 H   0  0  0  0  0  0  0  0  0  0  0  0
   -0.0282   -1.1175   -1.0081 H   0  0  0  0  0  0  0  0  0  0  0  0
    1.9333   -0.5451    1.1430 H   0  0  0  0  0  0  0  0  0  0  0  0
    2.3293   -0.9754   -0.5560 H   0  0  0  0  0  0  0  0  0  0  0  0
    2.1779    1.1663   -1.1258 H   0  0  0  0  0  0  0  0  0  0  0  0
  1  2  1  0
  2  3  2  0
  3  4  1  0
  4  5  1  0
  1  6  1  0
  1  7  1  0
  1  8  1  0
  2  9  1  0
  3 10  1  0
  4 11  1  0
  4 12  1  0
  5 13  1  0
M  END
