
     RDKit          3D

 26 26  0  0  0  0  0  0  0  0999 V2000
   -3.2759    1.6496   -0.4218 C   0  0  0  0  0  0  0  0  0  0  0  0
   -2.6934    0.3137   -0.6007 N   0  0  0  0  0  0  0  0  0  0  0  0
   -3.5480   -0.7713   -1.0992 C   0  0  0  0  0  0  0  0  0  0  0  0
   -1.2958    0.0695   -0.2911 C   0  0  0  0  0  0  0  0  0  0  0  0
   -0.3716    1.1319   -0.2264 C   0  0  0  0  0  0  0  0  0  0  0  0
    0.9740    0.8964    0.0698 C   0  0  0  0  0  0  0  0  0  0  0  0
    1.4368   -0.4114    0.3026 C   0  0  0  0  0  0  0  0  0  0  0  0
    2.8522   -0.7124    0.6323 C   0  0  0  0  0  0  0  0  0  0  0  0
    3.8758    0.1013    0.3363 C   0  0  0  0  0  0  0  0  0  0  0  0
    5.2688   -0.2364    0.6684 C   0  0  0  0  0  0  0  0  0  0  0  0
    5.5619   -1.3034    1.2713 O   0  0  0  0  0  0  0  0  0  0  0  0
    0.5181   -1.4694    0.2566 C   0  0  0  0  0  0  0  0  0  0  0  0
   -0.8270   -1.2358   -0.0409 C   0  0  0  0  0  0  0  0  0  0  0  0
   -2.8897    2.3372   -1.2029 H   0  0  0  0  0  0  0  0  0  0  0  0
   -3.0181    2.0423    0.5847 H   0  0  0  0  0  0  0  0  0  0  0  0
   -4.3836    1.6268   -0.4967 H   0  0  0  0  0  0  0  0  0  0  0  0
   -4.5143   -0.3858   -1.4879 H   0  0  0  0  0  0  0  0  0  0  0  0
   -3.7651   -1.4876   -0.2795 H   0  0  0  0  0  0  0  0  0  0  0  0
   -3.0400   -1.2991   -1.9341 H   0  0  0  0  0  0  0  0  0  0  0  0
   -0.6801    2.1519   -0.4081 H   0  0  0  0  0  0  0  0  0  0  0  0
    1.6374    1.7474    0.1355 H   0  0  0  0  0  0  0  0  0  0  0  0
    3.0613   -1.6665    1.1028 H   0  0  0  0  0  0  0  0  0  0  0  0
    3.7109    1.0325   -0.1867 H   0  0  0  0  0  0  0  0  0  0  0  0
    6.0590    0.4479    0.3898 H   0  0  0  0  0  0  0  0  0  0  0  0
    0.8437   -2.4854    0.4456 H   0  0  0  0  0  0  0  0  0  0  0  0
   -1.4972   -2.0839   -0.0618 H   0  0  0  0  0  0  0  0  0  0  0  0
  1  2  1  0
  2  3  1  0
  2  4  1  0
  4  5  2  0
  5  6  1  0
  6  7  2  0
  7  8  1  0
  8  9  2  0
  9 10  1  0
 10 11  2  0
  7 12  1  0
 12 13  2  0
 13  4  1  0
  1 14  1  0
  1 15  1  0
  1 16  1  0
  3 17  1  0
  3 18  1  0
  3 19  1  0
  5 20  1  0
  6 21  1  0
  8 22  1  0
  9 23  1  0
 10 24  1  0
 12 25  1  0
 13 26  1  0
M  END
