
     RDKit          3D

 16 16  0  0  0  0  0  0  0  0999 V2000
   -2.6713   -2.1366    0.5219 O   0  0  0  0  0  1  0  0  0  0  0  0
   -2.2885   -1.2542   -0.4615 N   0  0  0  0  0  4  0  0  0  0  0  0
   -2.9521   -1.1911   -1.5167 O   0  0  0  0  0  0  0  0  0  0  0  0
   -1.1541   -0.3965   -0.2648 C   0  0  0  0  0  0  0  0  0  0  0  0
   -1.2759    0.9942   -0.4531 C   0  0  0  0  0  0  0  0  0  0  0  0
   -2.8116    1.7344   -0.8912 Cl  0  0  0  0  0  0  0  0  0  0  0  0
   -0.1755    1.8277   -0.2490 C   0  0  0  0  0  0  0  0  0  0  0  0
    1.0557    1.2990    0.1407 C   0  0  0  0  0  0  0  0  0  0  0  0
    2.4143    2.4024    0.3276 Cl  0  0  0  0  0  0  0  0  0  0  0  0
    1.2008   -0.0892    0.3310 C   0  0  0  0  0  0  0  0  0  0  0  0
    0.0900   -0.9374    0.1277 C   0  0  0  0  0  0  0  0  0  0  0  0
    0.2573   -2.6793    0.3650 Cl  0  0  0  0  0  0  0  0  0  0  0  0
    2.4701   -0.6363    0.7190 N   0  0  0  0  0  4  0  0  0  0  0  0
    3.0360   -1.6602   -0.0047 O   0  0  0  0  0  1  0  0  0  0  0  0
    3.0831   -0.1729    1.7025 O   0  0  0  0  0  0  0  0  0  0  0  0
   -0.2781    2.8961   -0.3945 H   0  0  0  0  0  0  0  0  0  0  0  0
  1  2  1  0
  2  3  2  0
  2  4  1  0
  4  5  2  0
  5  6  1  0
  5  7  1  0
  7  8  2  0
  8  9  1  0
  8 10  1  0
 10 11  2  0
 11 12  1  0
 10 13  1  0
 13 14  1  0
 13 15  2  0
 11  4  1  0
  7 16  1  0
M  CHG  4   1  -1   2   1  13   1  14  -1
M  END
