
     RDKit          3D

 24 24  0  0  0  0  0  0  0  0999 V2000
   -4.2640    0.2365   -0.0870 C   0  0  0  0  0  0  0  0  0  0  0  0
   -3.5023   -1.0829   -0.0368 C   0  0  0  0  0  0  0  0  0  0  0  0
   -2.1078   -0.8671   -0.2444 O   0  0  0  0  0  0  0  0  0  0  0  0
   -1.2523   -0.3432    0.7334 C   0  0  0  0  0  0  0  0  0  0  0  0
   -1.6929   -0.0854    1.8878 O   0  0  0  0  0  0  0  0  0  0  0  0
    0.1710   -0.0994    0.4112 C   0  0  0  0  0  0  0  0  0  0  0  0
    0.6672   -0.3862   -0.8723 C   0  0  0  0  0  0  0  0  0  0  0  0
    2.0114   -0.1565   -1.1808 C   0  0  0  0  0  0  0  0  0  0  0  0
    2.8786    0.3758   -0.2161 C   0  0  0  0  0  0  0  0  0  0  0  0
    4.3291    0.5846   -0.5363 C   0  0  0  0  0  0  0  0  0  0  0  0
    2.3927    0.6467    1.0709 C   0  0  0  0  0  0  0  0  0  0  0  0
    1.0489    0.4177    1.3811 C   0  0  0  0  0  0  0  0  0  0  0  0
   -4.0816    0.7423   -1.0587 H   0  0  0  0  0  0  0  0  0  0  0  0
   -3.9381    0.9039    0.7377 H   0  0  0  0  0  0  0  0  0  0  0  0
   -5.3522    0.0435    0.0198 H   0  0  0  0  0  0  0  0  0  0  0  0
   -3.8814   -1.7439   -0.8444 H   0  0  0  0  0  0  0  0  0  0  0  0
   -3.6756   -1.5928    0.9357 H   0  0  0  0  0  0  0  0  0  0  0  0
    0.0188   -0.7915   -1.6390 H   0  0  0  0  0  0  0  0  0  0  0  0
    2.3753   -0.3933   -2.1731 H   0  0  0  0  0  0  0  0  0  0  0  0
    4.8956   -0.3408   -0.3022 H   0  0  0  0  0  0  0  0  0  0  0  0
    4.7450    1.4247    0.0598 H   0  0  0  0  0  0  0  0  0  0  0  0
    4.4618    0.8286   -1.6119 H   0  0  0  0  0  0  0  0  0  0  0  0
    3.0540    1.0364    1.8351 H   0  0  0  0  0  0  0  0  0  0  0  0
    0.6991    0.6423    2.3810 H   0  0  0  0  0  0  0  0  0  0  0  0
  1  2  1  0
  2  3  1  0
  3  4  1  0
  4  5  2  0
  4  6  1  0
  6  7  2  0
  7  8  1  0
  8  9  2  0
  9 10  1  0
  9 11  1  0
 11 12  2  0
 12  6  1  0
  1 13  1  0
  1 14  1  0
  1 15  1  0
  2 16  1  0
  2 17  1  0
  7 18  1  0
  8 19  1  0
 10 20  1  0
 10 21  1  0
 10 22  1  0
 11 23  1  0
 12 24  1  0
M  END
