
     RDKit          3D

 18 17  0  0  0  0  0  0  0  0999 V2000
   -3.2809   -0.3958   -0.7078 C   0  0  0  0  0  0  0  0  0  0  0  0
   -2.0530   -0.1086   -0.0494 O   0  0  0  0  0  0  0  0  0  0  0  0
   -0.8117   -0.2072   -0.6874 C   0  0  0  0  0  0  0  0  0  0  0  0
   -0.7559   -0.5629   -1.8979 O   0  0  0  0  0  0  0  0  0  0  0  0
    0.4324    0.1083    0.0606 C   0  0  0  0  0  0  0  0  0  0  0  0
    0.3427    0.4867    1.5199 C   0  0  0  0  0  0  0  0  0  0  0  0
    1.6229    0.0912   -0.5727 C   0  0  0  0  0  0  0  0  0  0  0  0
    2.9219    0.4245    0.0996 C   0  0  0  0  0  0  0  0  0  0  0  0
   -3.4167    0.2864   -1.5736 H   0  0  0  0  0  0  0  0  0  0  0  0
   -4.1193   -0.2459    0.0030 H   0  0  0  0  0  0  0  0  0  0  0  0
   -3.2883   -1.4505   -1.0557 H   0  0  0  0  0  0  0  0  0  0  0  0
    1.0318   -0.1405    2.1234 H   0  0  0  0  0  0  0  0  0  0  0  0
    0.6123    1.5562    1.6470 H   0  0  0  0  0  0  0  0  0  0  0  0
   -0.6776    0.3369    1.9279 H   0  0  0  0  0  0  0  0  0  0  0  0
    1.6730   -0.1646   -1.6245 H   0  0  0  0  0  0  0  0  0  0  0  0
    2.8875    1.4546    0.5123 H   0  0  0  0  0  0  0  0  0  0  0  0
    3.1296   -0.3007    0.9139 H   0  0  0  0  0  0  0  0  0  0  0  0
    3.7492    0.3688   -0.6386 H   0  0  0  0  0  0  0  0  0  0  0  0
  1  2  1  0
  2  3  1  0
  3  4  2  0
  3  5  1  0
  5  6  1  0
  5  7  2  0
  7  8  1  0
  1  9  1  0
  1 10  1  0
  1 11  1  0
  6 12  1  0
  6 13  1  0
  6 14  1  0
  7 15  1  0
  8 16  1  0
  8 17  1  0
  8 18  1  0
M  END
