
     RDKit          3D

 16 16  0  0  0  0  0  0  0  0999 V2000
    2.4875    0.3853    0.0827 C   0  0  0  0  0  0  0  0  0  0  0  0
    1.0172    0.0945    0.0205 C   0  0  0  0  0  0  0  0  0  0  0  0
    0.5314   -1.1700    0.3820 C   0  0  0  0  0  0  0  0  0  0  0  0
   -0.8413   -1.4291    0.3592 C   0  0  0  0  0  0  0  0  0  0  0  0
   -1.7466   -0.4283   -0.0108 C   0  0  0  0  0  0  0  0  0  0  0  0
   -3.1087   -0.7306   -0.0211 O   0  0  0  0  0  0  0  0  0  0  0  0
   -1.2657    0.8501   -0.3580 C   0  0  0  0  0  0  0  0  0  0  0  0
    0.1112    1.1053   -0.3337 C   0  0  0  0  0  0  0  0  0  0  0  0
   -2.4449    2.2736   -0.8627 Br  0  0  0  0  0  0  0  0  0  0  0  0
    2.7470    0.7608    1.0946 H   0  0  0  0  0  0  0  0  0  0  0  0
    2.7673    1.1519   -0.6711 H   0  0  0  0  0  0  0  0  0  0  0  0
    3.0781   -0.5322   -0.1259 H   0  0  0  0  0  0  0  0  0  0  0  0
    1.2147   -1.9556    0.6805 H   0  0  0  0  0  0  0  0  0  0  0  0
   -1.2042   -2.4116    0.6337 H   0  0  0  0  0  0  0  0  0  0  0  0
   -3.8181   -0.0565   -0.2779 H   0  0  0  0  0  0  0  0  0  0  0  0
    0.4751    2.0923   -0.5921 H   0  0  0  0  0  0  0  0  0  0  0  0
  1  2  1  0
  2  3  2  0
  3  4  1  0
  4  5  2  0
  5  6  1  0
  5  7  1  0
  7  8  2  0
  7  9  1  0
  8  2  1  0
  1 10  1  0
  1 11  1  0
  1 12  1  0
  3 13  1  0
  4 14  1  0
  6 15  1  0
  8 16  1  0
M  END
