
     RDKit          3D

 30 29  0  0  0  0  0  0  0  0999 V2000
    3.9232    1.0945    0.0468 C   0  0  0  0  0  0  0  0  0  0  0  0
    3.6054   -0.3252    0.5013 C   0  0  0  0  0  0  0  0  0  0  0  0
    2.2595   -0.6678    0.1771 O   0  0  0  0  0  0  0  0  0  0  0  0
    1.1487   -0.2060    0.8940 C   0  0  0  0  0  0  0  0  0  0  0  0
    1.3147    0.5371    1.9002 O   0  0  0  0  0  0  0  0  0  0  0  0
   -0.2283   -0.5567    0.4526 C   0  0  0  0  0  0  0  0  0  0  0  0
   -0.5352   -1.8039   -0.0099 C   0  0  0  0  0  0  0  0  0  0  0  0
   -1.9489   -2.1740   -0.4009 C   0  0  0  0  0  0  0  0  0  0  0  0
    0.5026   -2.9032   -0.0612 C   0  0  0  0  0  0  0  0  0  0  0  0
   -1.2597    0.5104    0.5602 C   0  0  0  0  0  0  0  0  0  0  0  0
   -1.2461    1.2988    1.5452 O   0  0  0  0  0  0  0  0  0  0  0  0
   -2.2231    0.6657   -0.4442 O   0  0  0  0  0  0  0  0  0  0  0  0
   -3.2044    1.7005   -0.4425 C   0  0  0  0  0  0  0  0  0  0  0  0
   -2.5842    3.0302   -0.8551 C   0  0  0  0  0  0  0  0  0  0  0  0
    3.2887    1.8265    0.5885 H   0  0  0  0  0  0  0  0  0  0  0  0
    4.9893    1.3235    0.2560 H   0  0  0  0  0  0  0  0  0  0  0  0
    3.7413    1.1923   -1.0444 H   0  0  0  0  0  0  0  0  0  0  0  0
    3.7800   -0.4302    1.5942 H   0  0  0  0  0  0  0  0  0  0  0  0
    4.2848   -1.0283   -0.0249 H   0  0  0  0  0  0  0  0  0  0  0  0
   -2.6587   -1.8952    0.4066 H   0  0  0  0  0  0  0  0  0  0  0  0
   -2.0619   -3.2640   -0.5752 H   0  0  0  0  0  0  0  0  0  0  0  0
   -2.2268   -1.6617   -1.3451 H   0  0  0  0  0  0  0  0  0  0  0  0
    1.2379   -2.6923   -0.8649 H   0  0  0  0  0  0  0  0  0  0  0  0
    1.0221   -2.9901    0.9168 H   0  0  0  0  0  0  0  0  0  0  0  0
    0.0518   -3.8928   -0.2823 H   0  0  0  0  0  0  0  0  0  0  0  0
   -3.6750    1.7874    0.5610 H   0  0  0  0  0  0  0  0  0  0  0  0
   -3.9977    1.4355   -1.1728 H   0  0  0  0  0  0  0  0  0  0  0  0
   -1.8155    3.3448   -0.1189 H   0  0  0  0  0  0  0  0  0  0  0  0
   -3.3724    3.8108   -0.9028 H   0  0  0  0  0  0  0  0  0  0  0  0
   -2.1121    2.9335   -1.8556 H   0  0  0  0  0  0  0  0  0  0  0  0
  1  2  1  0
  2  3  1  0
  3  4  1  0
  4  5  2  0
  4  6  1  0
  6  7  2  3
  7  8  1  0
  7  9  1  0
  6 10  1  0
 10 11  2  0
 10 12  1  0
 12 13  1  0
 13 14  1  0
  1 15  1  0
  1 16  1  0
  1 17  1  0
  2 18  1  0
  2 19  1  0
  8 20  1  0
  8 21  1  0
  8 22  1  0
  9 23  1  0
  9 24  1  0
  9 25  1  0
 13 26  1  0
 13 27  1  0
 14 28  1  0
 14 29  1  0
 14 30  1  0
M  END
