
     RDKit          3D

 18 18  0  0  0  0  0  0  0  0999 V2000
    3.0916   -0.3665   -0.0067 C   0  0  0  0  0  0  0  0  0  0  0  0
    1.7574   -1.0361    0.1048 C   0  0  0  0  0  0  0  0  0  0  0  0
    1.7030   -2.2911    0.2050 O   0  0  0  0  0  0  0  0  0  0  0  0
    0.5087   -0.2515    0.0995 C   0  0  0  0  0  0  0  0  0  0  0  0
    0.4132    1.1272    0.0031 C   0  0  0  0  0  0  0  0  0  0  0  0
   -0.9335    1.4293    0.0510 C   0  0  0  0  0  0  0  0  0  0  0  0
   -1.5975    0.2229    0.1611 C   0  0  0  0  0  0  0  0  0  0  0  0
   -3.0739    0.0588    0.3161 C   0  0  0  0  0  0  0  0  0  0  0  0
   -0.7195   -0.7964    0.2026 N   0  0  0  0  0  0  0  0  0  0  0  0
    3.9086   -1.1189    0.0112 H   0  0  0  0  0  0  0  0  0  0  0  0
    3.2325    0.3322    0.8444 H   0  0  0  0  0  0  0  0  0  0  0  0
    3.1489    0.1983   -0.9607 H   0  0  0  0  0  0  0  0  0  0  0  0
    1.2262    1.8361   -0.0811 H   0  0  0  0  0  0  0  0  0  0  0  0
   -1.3763    2.4161    0.0189 H   0  0  0  0  0  0  0  0  0  0  0  0
   -3.3399    0.1070    1.3924 H   0  0  0  0  0  0  0  0  0  0  0  0
   -3.6080    0.8651   -0.2296 H   0  0  0  0  0  0  0  0  0  0  0  0
   -3.3920   -0.9220   -0.0952 H   0  0  0  0  0  0  0  0  0  0  0  0
   -0.9493   -1.8103    0.3052 H   0  0  0  0  0  0  0  0  0  0  0  0
  1  2  1  0
  2  3  2  0
  2  4  1  0
  4  5  2  0
  5  6  1  0
  6  7  2  0
  7  8  1  0
  7  9  1  0
  9  4  1  0
  1 10  1  0
  1 11  1  0
  1 12  1  0
  5 13  1  0
  6 14  1  0
  8 15  1  0
  8 16  1  0
  8 17  1  0
  9 18  1  0
M  END
