
     RDKit          3D

 23 22  0  0  0  0  0  0  0  0999 V2000
    3.2070    0.9815    0.8934 C   0  0  0  0  0  0  0  0  0  0  0  0
    2.6999    1.1584   -0.5331 C   0  0  0  0  0  0  0  0  0  0  0  0
    1.2766    1.0789   -0.5744 O   0  0  0  0  0  0  0  0  0  0  0  0
    0.5690   -0.1245   -0.4730 C   0  0  0  0  0  0  0  0  0  0  0  0
    1.1813   -1.2258   -0.3957 O   0  0  0  0  0  0  0  0  0  0  0  0
   -0.9344   -0.0959   -0.4587 C   0  0  0  0  0  0  0  0  0  0  0  0
   -1.4814   -0.8707   -1.6657 C   0  0  0  0  0  0  0  0  0  0  0  0
   -1.4569   -0.6548    0.8818 C   0  0  0  0  0  0  0  0  0  0  0  0
   -2.9546   -0.4179    1.0785 C   0  0  0  0  0  0  0  0  0  0  0  0
    4.3106    1.1018    0.9149 H   0  0  0  0  0  0  0  0  0  0  0  0
    2.9514   -0.0297    1.2732 H   0  0  0  0  0  0  0  0  0  0  0  0
    2.7484    1.7459    1.5558 H   0  0  0  0  0  0  0  0  0  0  0  0
    3.1506    0.3927   -1.2014 H   0  0  0  0  0  0  0  0  0  0  0  0
    3.0086    2.1600   -0.8996 H   0  0  0  0  0  0  0  0  0  0  0  0
   -1.2577    0.9646   -0.5536 H   0  0  0  0  0  0  0  0  0  0  0  0
   -1.0171   -0.4949   -2.6029 H   0  0  0  0  0  0  0  0  0  0  0  0
   -2.5780   -0.7279   -1.7563 H   0  0  0  0  0  0  0  0  0  0  0  0
   -1.2645   -1.9564   -1.5698 H   0  0  0  0  0  0  0  0  0  0  0  0
   -1.2469   -1.7447    0.9534 H   0  0  0  0  0  0  0  0  0  0  0  0
   -0.9218   -0.1523    1.7180 H   0  0  0  0  0  0  0  0  0  0  0  0
   -3.5463   -1.0173    0.3562 H   0  0  0  0  0  0  0  0  0  0  0  0
   -3.2456   -0.7299    2.1037 H   0  0  0  0  0  0  0  0  0  0  0  0
   -3.1981    0.6588    0.9554 H   0  0  0  0  0  0  0  0  0  0  0  0
  1  2  1  0
  2  3  1  0
  3  4  1  0
  4  5  2  0
  4  6  1  0
  6  7  1  0
  6  8  1  0
  8  9  1  0
  1 10  1  0
  1 11  1  0
  1 12  1  0
  2 13  1  0
  2 14  1  0
  6 15  1  0
  7 16  1  0
  7 17  1  0
  7 18  1  0
  8 19  1  0
  8 20  1  0
  9 21  1  0
  9 22  1  0
  9 23  1  0
M  END
