
     RDKit          3D

 28 28  0  0  0  0  0  0  0  0999 V2000
    4.6827    0.3864   -0.2629 C   0  0  0  0  0  0  0  0  0  0  0  0
    3.9136    0.8784    0.9628 C   0  0  0  0  0  0  0  0  0  0  0  0
    2.3909    0.8010    0.7765 C   0  0  0  0  0  0  0  0  0  0  0  0
    1.8695   -0.6415    0.7693 C   0  0  0  0  0  0  0  0  0  0  0  0
    0.4433   -0.6545    0.7641 O   0  0  0  0  0  0  0  0  0  0  0  0
   -0.3281   -0.3652   -0.3690 C   0  0  0  0  0  0  0  0  0  0  0  0
    0.2339   -0.1296   -1.4743 O   0  0  0  0  0  0  0  0  0  0  0  0
   -1.8040   -0.3437   -0.2679 C   0  0  0  0  0  0  0  0  0  0  0  0
   -2.4351   -0.6041    0.9617 C   0  0  0  0  0  0  0  0  0  0  0  0
   -3.8298   -0.5835    1.0604 C   0  0  0  0  0  0  0  0  0  0  0  0
   -4.6115   -0.3033   -0.0639 C   0  0  0  0  0  0  0  0  0  0  0  0
   -5.9998   -0.2863    0.0499 O   0  0  0  0  0  0  0  0  0  0  0  0
   -3.9921   -0.0424   -1.2927 C   0  0  0  0  0  0  0  0  0  0  0  0
   -2.5977   -0.0620   -1.3954 C   0  0  0  0  0  0  0  0  0  0  0  0
    4.5329   -0.7032   -0.4098 H   0  0  0  0  0  0  0  0  0  0  0  0
    4.3538    0.9316   -1.1730 H   0  0  0  0  0  0  0  0  0  0  0  0
    5.7680    0.5691   -0.1149 H   0  0  0  0  0  0  0  0  0  0  0  0
    4.2209    0.2921    1.8560 H   0  0  0  0  0  0  0  0  0  0  0  0
    4.1913    1.9391    1.1456 H   0  0  0  0  0  0  0  0  0  0  0  0
    1.9089    1.3441    1.6184 H   0  0  0  0  0  0  0  0  0  0  0  0
    2.1009    1.3166   -0.1642 H   0  0  0  0  0  0  0  0  0  0  0  0
    2.2166   -1.1613    1.6875 H   0  0  0  0  0  0  0  0  0  0  0  0
    2.2536   -1.2009   -0.1104 H   0  0  0  0  0  0  0  0  0  0  0  0
   -1.8531   -0.8234    1.8480 H   0  0  0  0  0  0  0  0  0  0  0  0
   -4.3037   -0.7856    2.0126 H   0  0  0  0  0  0  0  0  0  0  0  0
   -6.5939   -0.0866   -0.7464 H   0  0  0  0  0  0  0  0  0  0  0  0
   -4.5897    0.1757   -2.1687 H   0  0  0  0  0  0  0  0  0  0  0  0
   -2.1424    0.1430   -2.3562 H   0  0  0  0  0  0  0  0  0  0  0  0
  1  2  1  0
  2  3  1  0
  3  4  1  0
  4  5  1  0
  5  6  1  0
  6  7  2  0
  6  8  1  0
  8  9  2  0
  9 10  1  0
 10 11  2  0
 11 12  1  0
 11 13  1  0
 13 14  2  0
 14  8  1  0
  1 15  1  0
  1 16  1  0
  1 17  1  0
  2 18  1  0
  2 19  1  0
  3 20  1  0
  3 21  1  0
  4 22  1  0
  4 23  1  0
  9 24  1  0
 10 25  1  0
 12 26  1  0
 13 27  1  0
 14 28  1  0
M  END
