
     RDKit          3D

 21 22  0  0  0  0  0  0  0  0999 V2000
    0.1778    3.1890   -0.2081 O   0  0  0  0  0  0  0  0  0  0  0  0
   -0.2999    1.8745   -0.2352 C   0  0  0  0  0  0  0  0  0  0  0  0
   -1.6352    1.6974   -0.5940 C   0  0  0  0  0  0  0  0  0  0  0  0
   -2.1937    0.4274   -0.6724 C   0  0  0  0  0  0  0  0  0  0  0  0
   -1.4302   -0.7132   -0.4003 C   0  0  0  0  0  0  0  0  0  0  0  0
   -2.0947   -2.0205   -0.6066 C   0  0  0  0  0  0  0  0  0  0  0  0
   -1.4691   -3.0162   -1.0563 O   0  0  0  0  0  0  0  0  0  0  0  0
   -0.0801   -0.5628    0.0250 C   0  0  0  0  0  0  0  0  0  0  0  0
    0.4974    0.7446    0.0875 C   0  0  0  0  0  0  0  0  0  0  0  0
    1.8460    0.8774    0.4869 C   0  0  0  0  0  0  0  0  0  0  0  0
    2.5983   -0.2403    0.8437 C   0  0  0  0  0  0  0  0  0  0  0  0
    2.0248   -1.5058    0.8265 C   0  0  0  0  0  0  0  0  0  0  0  0
    0.6989   -1.6701    0.4310 C   0  0  0  0  0  0  0  0  0  0  0  0
    1.1229    3.4565    0.0229 H   0  0  0  0  0  0  0  0  0  0  0  0
   -2.2470    2.5594   -0.8299 H   0  0  0  0  0  0  0  0  0  0  0  0
   -3.2284    0.3337   -0.9811 H   0  0  0  0  0  0  0  0  0  0  0  0
   -3.1619   -2.1074   -0.4461 H   0  0  0  0  0  0  0  0  0  0  0  0
    2.3430    1.8318    0.5422 H   0  0  0  0  0  0  0  0  0  0  0  0
    3.6292   -0.1213    1.1526 H   0  0  0  0  0  0  0  0  0  0  0  0
    2.6084   -2.3655    1.1304 H   0  0  0  0  0  0  0  0  0  0  0  0
    0.2936   -2.6686    0.4814 H   0  0  0  0  0  0  0  0  0  0  0  0
  1  2  1  0
  2  3  2  0
  3  4  1  0
  4  5  2  0
  5  6  1  0
  6  7  2  0
  5  8  1  0
  8  9  2  0
  9 10  1  0
 10 11  2  0
 11 12  1  0
 12 13  2  0
  9  2  1  0
 13  8  1  0
  1 14  1  0
  3 15  1  0
  4 16  1  0
  6 17  1  0
 10 18  1  0
 11 19  1  0
 12 20  1  0
 13 21  1  0
M  END
