
     RDKit          3D

 31 30  0  0  0  0  0  0  0  0999 V2000
   -4.3353    0.0187    1.4638 C   0  0  0  0  0  0  0  0  0  0  0  0
   -3.8698   -0.4593    0.0889 C   0  0  0  0  0  0  0  0  0  0  0  0
   -3.6272    0.6965   -0.8977 C   0  0  0  0  0  0  0  0  0  0  0  0
   -2.5366    1.6997   -0.4701 C   0  0  0  0  0  0  0  0  0  0  0  0
   -1.1506    1.0836   -0.2086 C   0  0  0  0  0  0  0  0  0  0  0  0
   -0.5567    0.4084   -1.4505 C   0  0  0  0  0  0  0  0  0  0  0  0
    0.8203   -0.0228   -1.1866 C   0  0  0  0  0  0  0  0  0  0  0  0
    1.9518   -0.3771   -0.9686 C   0  0  0  0  0  0  0  0  0  0  0  0
    3.2982   -0.7973   -0.7071 C   0  0  0  0  0  0  0  0  0  0  0  0
    3.6766   -1.9393   -1.0828 O   0  0  0  0  0  0  0  0  0  0  0  0
    4.1721    0.0712   -0.0455 O   0  0  0  0  0  0  0  0  0  0  0  0
    5.5124   -0.2756    0.2981 C   0  0  0  0  0  0  0  0  0  0  0  0
    5.5350   -1.2091    1.5031 C   0  0  0  0  0  0  0  0  0  0  0  0
   -5.2152    0.6893    1.3646 H   0  0  0  0  0  0  0  0  0  0  0  0
   -4.6257   -0.8579    2.0805 H   0  0  0  0  0  0  0  0  0  0  0  0
   -3.5178    0.5544    1.9897 H   0  0  0  0  0  0  0  0  0  0  0  0
   -4.6600   -1.1154   -0.3361 H   0  0  0  0  0  0  0  0  0  0  0  0
   -2.9569   -1.0817    0.1958 H   0  0  0  0  0  0  0  0  0  0  0  0
   -4.5795    1.2540   -1.0343 H   0  0  0  0  0  0  0  0  0  0  0  0
   -3.3698    0.2716   -1.8910 H   0  0  0  0  0  0  0  0  0  0  0  0
   -2.8680    2.2356    0.4447 H   0  0  0  0  0  0  0  0  0  0  0  0
   -2.4397    2.4701   -1.2661 H   0  0  0  0  0  0  0  0  0  0  0  0
   -0.4728    1.9058    0.1124 H   0  0  0  0  0  0  0  0  0  0  0  0
   -1.2028    0.3601    0.6328 H   0  0  0  0  0  0  0  0  0  0  0  0
   -0.5502    1.1175   -2.3054 H   0  0  0  0  0  0  0  0  0  0  0  0
   -1.1524   -0.4865   -1.7258 H   0  0  0  0  0  0  0  0  0  0  0  0
    6.0624    0.6537    0.5570 H   0  0  0  0  0  0  0  0  0  0  0  0
    6.0244   -0.7496   -0.5676 H   0  0  0  0  0  0  0  0  0  0  0  0
    5.0315   -2.1680    1.2601 H   0  0  0  0  0  0  0  0  0  0  0  0
    5.0161   -0.7323    2.3615 H   0  0  0  0  0  0  0  0  0  0  0  0
    6.5861   -1.4216    1.7909 H   0  0  0  0  0  0  0  0  0  0  0  0
  1  2  1  0
  2  3  1  0
  3  4  1  0
  4  5  1  0
  5  6  1  0
  6  7  1  0
  7  8  3  0
  8  9  1  0
  9 10  2  0
  9 11  1  0
 11 12  1  0
 12 13  1  0
  1 14  1  0
  1 15  1  0
  1 16  1  0
  2 17  1  0
  2 18  1  0
  3 19  1  0
  3 20  1  0
  4 21  1  0
  4 22  1  0
  5 23  1  0
  5 24  1  0
  6 25  1  0
  6 26  1  0
 12 27  1  0
 12 28  1  0
 13 29  1  0
 13 30  1  0
 13 31  1  0
M  END
