
     RDKit          3D

 28 28  0  0  0  0  0  0  0  0999 V2000
   -3.8981   -1.3791   -0.0360 O   0  0  0  0  0  0  0  0  0  0  0  0
   -3.4832   -0.3578   -0.9028 C   0  0  0  0  0  0  0  0  0  0  0  0
   -3.0888    0.9042   -0.1224 C   0  0  0  0  0  0  0  0  0  0  0  0
   -1.9803    0.6647    0.9168 C   0  0  0  0  0  0  0  0  0  0  0  0
   -0.6199    0.3605    0.2724 C   0  0  0  0  0  0  0  0  0  0  0  0
    0.4826    0.2726    1.3333 C   0  0  0  0  0  0  0  0  0  0  0  0
    1.8089   -0.0402    0.6935 C   0  0  0  0  0  0  0  0  0  0  0  0
    2.6382    0.9980    0.2368 C   0  0  0  0  0  0  0  0  0  0  0  0
    3.8548    0.7046   -0.3872 C   0  0  0  0  0  0  0  0  0  0  0  0
    4.2468   -0.6247   -0.5682 C   0  0  0  0  0  0  0  0  0  0  0  0
    3.4208   -1.6631   -0.1291 C   0  0  0  0  0  0  0  0  0  0  0  0
    2.2033   -1.3741    0.4954 C   0  0  0  0  0  0  0  0  0  0  0  0
   -4.7990   -1.1232    0.2935 H   0  0  0  0  0  0  0  0  0  0  0  0
   -2.6262   -0.7203   -1.5065 H   0  0  0  0  0  0  0  0  0  0  0  0
   -4.3005   -0.1088   -1.6170 H   0  0  0  0  0  0  0  0  0  0  0  0
   -3.9892    1.2888    0.4044 H   0  0  0  0  0  0  0  0  0  0  0  0
   -2.7664    1.6909   -0.8387 H   0  0  0  0  0  0  0  0  0  0  0  0
   -1.8873    1.5862    1.5325 H   0  0  0  0  0  0  0  0  0  0  0  0
   -2.2700   -0.1640    1.5988 H   0  0  0  0  0  0  0  0  0  0  0  0
   -0.6715   -0.6075   -0.2705 H   0  0  0  0  0  0  0  0  0  0  0  0
   -0.3657    1.1633   -0.4545 H   0  0  0  0  0  0  0  0  0  0  0  0
    0.5508    1.2358    1.8856 H   0  0  0  0  0  0  0  0  0  0  0  0
    0.2277   -0.5166    2.0746 H   0  0  0  0  0  0  0  0  0  0  0  0
    2.3417    2.0321    0.3625 H   0  0  0  0  0  0  0  0  0  0  0  0
    4.4922    1.5079   -0.7337 H   0  0  0  0  0  0  0  0  0  0  0  0
    5.1881   -0.8500   -1.0525 H   0  0  0  0  0  0  0  0  0  0  0  0
    3.7222   -2.6922   -0.2758 H   0  0  0  0  0  0  0  0  0  0  0  0
    1.5681   -2.1880    0.8226 H   0  0  0  0  0  0  0  0  0  0  0  0
  1  2  1  0
  2  3  1  0
  3  4  1  0
  4  5  1  0
  5  6  1  0
  6  7  1  0
  7  8  2  0
  8  9  1  0
  9 10  2  0
 10 11  1  0
 11 12  2  0
 12  7  1  0
  1 13  1  0
  2 14  1  0
  2 15  1  0
  3 16  1  0
  3 17  1  0
  4 18  1  0
  4 19  1  0
  5 20  1  0
  5 21  1  0
  6 22  1  0
  6 23  1  0
  8 24  1  0
  9 25  1  0
 10 26  1  0
 11 27  1  0
 12 28  1  0
M  END
