
     RDKit          3D

 26 26  0  0  0  0  0  0  0  0999 V2000
    3.4528    1.8588   -0.1030 N   0  0  0  0  0  0  0  0  0  0  0  0
    2.9611    0.5684    0.3693 C   0  0  0  0  0  0  0  0  0  0  0  0
    1.6357    0.2265   -0.3161 C   0  0  0  0  0  0  0  0  0  0  0  0
    1.0818   -1.1132    0.1905 C   0  0  0  0  0  0  0  0  0  0  0  0
   -0.2014   -1.5289   -0.5434 C   0  0  0  0  0  0  0  0  0  0  0  0
   -1.3565   -0.6136   -0.2254 C   0  0  0  0  0  0  0  0  0  0  0  0
   -1.7316    0.3991   -1.1247 C   0  0  0  0  0  0  0  0  0  0  0  0
   -2.7881    1.2608   -0.8142 C   0  0  0  0  0  0  0  0  0  0  0  0
   -3.4741    1.1208    0.3954 C   0  0  0  0  0  0  0  0  0  0  0  0
   -3.1033    0.1200    1.2977 C   0  0  0  0  0  0  0  0  0  0  0  0
   -2.0470   -0.7436    0.9913 C   0  0  0  0  0  0  0  0  0  0  0  0
    4.3138    2.0903    0.4435 H   0  0  0  0  0  0  0  0  0  0  0  0
    3.7544    1.7494   -1.0987 H   0  0  0  0  0  0  0  0  0  0  0  0
    2.8041    0.6201    1.4694 H   0  0  0  0  0  0  0  0  0  0  0  0
    3.7154   -0.2224    0.1566 H   0  0  0  0  0  0  0  0  0  0  0  0
    1.7959    0.1698   -1.4152 H   0  0  0  0  0  0  0  0  0  0  0  0
    0.9051    1.0376   -0.1063 H   0  0  0  0  0  0  0  0  0  0  0  0
    1.8451   -1.9053    0.0277 H   0  0  0  0  0  0  0  0  0  0  0  0
    0.8855   -1.0519    1.2837 H   0  0  0  0  0  0  0  0  0  0  0  0
   -0.0147   -1.5594   -1.6394 H   0  0  0  0  0  0  0  0  0  0  0  0
   -0.4674   -2.5643   -0.2378 H   0  0  0  0  0  0  0  0  0  0  0  0
   -1.2036    0.5242   -2.0620 H   0  0  0  0  0  0  0  0  0  0  0  0
   -3.0735    2.0389   -1.5103 H   0  0  0  0  0  0  0  0  0  0  0  0
   -4.2912    1.7891    0.6345 H   0  0  0  0  0  0  0  0  0  0  0  0
   -3.6329    0.0147    2.2356 H   0  0  0  0  0  0  0  0  0  0  0  0
   -1.7655   -1.5116    1.7011 H   0  0  0  0  0  0  0  0  0  0  0  0
  1  2  1  0
  2  3  1  0
  3  4  1  0
  4  5  1  0
  5  6  1  0
  6  7  2  0
  7  8  1  0
  8  9  2  0
  9 10  1  0
 10 11  2  0
 11  6  1  0
  1 12  1  0
  1 13  1  0
  2 14  1  0
  2 15  1  0
  3 16  1  0
  3 17  1  0
  4 18  1  0
  4 19  1  0
  5 20  1  0
  5 21  1  0
  7 22  1  0
  8 23  1  0
  9 24  1  0
 10 25  1  0
 11 26  1  0
M  END
