
     RDKit          3D

 17 17  0  0  0  0  0  0  0  0999 V2000
    3.3948   -0.2611   -0.3201 O   0  0  0  0  0  0  0  0  0  0  0  0
    2.0080   -0.1440   -0.2608 C   0  0  0  0  0  0  0  0  0  0  0  0
    1.2071   -1.2368   -0.6083 C   0  0  0  0  0  0  0  0  0  0  0  0
   -0.1864   -1.1337   -0.5537 C   0  0  0  0  0  0  0  0  0  0  0  0
   -0.7925    0.0704   -0.1586 C   0  0  0  0  0  0  0  0  0  0  0  0
   -2.2893    0.1732   -0.0707 C   0  0  0  0  0  0  0  0  0  0  0  0
   -2.7417   -0.2264    1.2655 C   0  0  0  0  0  0  0  0  0  0  0  0
   -3.0987   -0.5418    2.3201 N   0  0  0  0  0  0  0  0  0  0  0  0
    0.0156    1.1618    0.2013 C   0  0  0  0  0  0  0  0  0  0  0  0
    1.4088    1.0559    0.1457 C   0  0  0  0  0  0  0  0  0  0  0  0
    4.0023    0.5118   -0.0741 H   0  0  0  0  0  0  0  0  0  0  0  0
    1.6651   -2.1675   -0.9181 H   0  0  0  0  0  0  0  0  0  0  0  0
   -0.7924   -1.9914   -0.8183 H   0  0  0  0  0  0  0  0  0  0  0  0
   -2.6195    1.2152   -0.2689 H   0  0  0  0  0  0  0  0  0  0  0  0
   -2.7689   -0.4835   -0.8275 H   0  0  0  0  0  0  0  0  0  0  0  0
   -0.4332    2.0928    0.5250 H   0  0  0  0  0  0  0  0  0  0  0  0
    2.0210    1.9051    0.4214 H   0  0  0  0  0  0  0  0  0  0  0  0
  1  2  1  0
  2  3  2  0
  3  4  1  0
  4  5  2  0
  5  6  1  0
  6  7  1  0
  7  8  3  0
  5  9  1  0
  9 10  2  0
 10  2  1  0
  1 11  1  0
  3 12  1  0
  4 13  1  0
  6 14  1  0
  6 15  1  0
  9 16  1  0
 10 17  1  0
M  END
