
     RDKit          3D

 23 23  0  0  0  0  0  0  0  0999 V2000
    3.6436   -0.0549    0.8453 C   0  0  0  0  0  0  0  0  0  0  0  0
    2.6907   -0.4335   -0.2824 C   0  0  0  0  0  0  0  0  0  0  0  0
    1.3213   -0.0327    0.0593 N   0  0  0  0  0  0  0  0  0  0  0  0
    0.3868   -0.4733   -0.9820 C   0  0  0  0  0  0  0  0  0  0  0  0
   -1.0211   -0.1319   -0.5777 C   0  0  0  0  0  0  0  0  0  0  0  0
   -1.7436   -0.9941    0.2639 C   0  0  0  0  0  0  0  0  0  0  0  0
   -3.0400   -0.6601    0.6684 C   0  0  0  0  0  0  0  0  0  0  0  0
   -3.6186    0.5397    0.2454 C   0  0  0  0  0  0  0  0  0  0  0  0
   -2.9000    1.4099   -0.5792 C   0  0  0  0  0  0  0  0  0  0  0  0
   -1.6033    1.0798   -0.9860 C   0  0  0  0  0  0  0  0  0  0  0  0
    3.3318   -0.5492    1.7899 H   0  0  0  0  0  0  0  0  0  0  0  0
    4.6733   -0.3838    0.5910 H   0  0  0  0  0  0  0  0  0  0  0  0
    3.6465    1.0461    0.9923 H   0  0  0  0  0  0  0  0  0  0  0  0
    2.7431   -1.5356   -0.4258 H   0  0  0  0  0  0  0  0  0  0  0  0
    3.0200    0.0672   -1.2209 H   0  0  0  0  0  0  0  0  0  0  0  0
    1.2926    1.0144    0.0919 H   0  0  0  0  0  0  0  0  0  0  0  0
    0.6328    0.0113   -1.9545 H   0  0  0  0  0  0  0  0  0  0  0  0
    0.4638   -1.5743   -1.1265 H   0  0  0  0  0  0  0  0  0  0  0  0
   -1.3029   -1.9223    0.6062 H   0  0  0  0  0  0  0  0  0  0  0  0
   -3.5947   -1.3299    1.3127 H   0  0  0  0  0  0  0  0  0  0  0  0
   -4.6215    0.7974    0.5604 H   0  0  0  0  0  0  0  0  0  0  0  0
   -3.3464    2.3423   -0.9002 H   0  0  0  0  0  0  0  0  0  0  0  0
   -1.0539    1.7675   -1.6169 H   0  0  0  0  0  0  0  0  0  0  0  0
  1  2  1  0
  2  3  1  0
  3  4  1  0
  4  5  1  0
  5  6  2  0
  6  7  1  0
  7  8  2  0
  8  9  1  0
  9 10  2  0
 10  5  1  0
  1 11  1  0
  1 12  1  0
  1 13  1  0
  2 14  1  0
  2 15  1  0
  3 16  1  0
  4 17  1  0
  4 18  1  0
  6 19  1  0
  7 20  1  0
  8 21  1  0
  9 22  1  0
 10 23  1  0
M  END
