
     RDKit          3D

 23 22  0  0  0  0  0  0  0  0999 V2000
    3.8591    0.3932    0.9458 C   0  0  0  0  0  0  0  0  0  0  0  0
    3.0123    0.3931   -0.3235 C   0  0  0  0  0  0  0  0  0  0  0  0
    1.5607    0.0042   -0.0212 C   0  0  0  0  0  0  0  0  0  0  0  0
    0.7195   -0.0074   -1.2997 C   0  0  0  0  0  0  0  0  0  0  0  0
   -0.6685   -0.3710   -0.9955 C   0  0  0  0  0  0  0  0  0  0  0  0
   -1.8094   -0.6689   -0.7439 C   0  0  0  0  0  0  0  0  0  0  0  0
   -3.1983   -1.0302   -0.4358 C   0  0  0  0  0  0  0  0  0  0  0  0
   -3.8968    0.0902    0.3317 C   0  0  0  0  0  0  0  0  0  0  0  0
   -3.2855    0.2724    1.5794 O   0  0  0  0  0  0  0  0  0  0  0  0
    3.8713   -0.6200    1.4015 H   0  0  0  0  0  0  0  0  0  0  0  0
    4.9017    0.6829    0.6968 H   0  0  0  0  0  0  0  0  0  0  0  0
    3.4538    1.1211    1.6809 H   0  0  0  0  0  0  0  0  0  0  0  0
    3.4511   -0.3278   -1.0476 H   0  0  0  0  0  0  0  0  0  0  0  0
    3.0416    1.4088   -0.7751 H   0  0  0  0  0  0  0  0  0  0  0  0
    1.1272    0.7333    0.6995 H   0  0  0  0  0  0  0  0  0  0  0  0
    1.5396   -1.0073    0.4425 H   0  0  0  0  0  0  0  0  0  0  0  0
    0.7288    0.9978   -1.7719 H   0  0  0  0  0  0  0  0  0  0  0  0
    1.1315   -0.7464   -2.0189 H   0  0  0  0  0  0  0  0  0  0  0  0
   -3.7381   -1.2172   -1.3879 H   0  0  0  0  0  0  0  0  0  0  0  0
   -3.2082   -1.9637    0.1663 H   0  0  0  0  0  0  0  0  0  0  0  0
   -4.9643   -0.1872    0.4786 H   0  0  0  0  0  0  0  0  0  0  0  0
   -3.8548    1.0347   -0.2569 H   0  0  0  0  0  0  0  0  0  0  0  0
   -3.7743    1.0154    2.0195 H   0  0  0  0  0  0  0  0  0  0  0  0
  1  2  1  0
  2  3  1  0
  3  4  1  0
  4  5  1  0
  5  6  3  0
  6  7  1  0
  7  8  1  0
  8  9  1  0
  1 10  1  0
  1 11  1  0
  1 12  1  0
  2 13  1  0
  2 14  1  0
  3 15  1  0
  3 16  1  0
  4 17  1  0
  4 18  1  0
  7 19  1  0
  7 20  1  0
  8 21  1  0
  8 22  1  0
  9 23  1  0
M  END
