
     RDKit          3D

 17 17  0  0  0  0  0  0  0  0999 V2000
   -2.5492   -1.0598   -0.2943 C   0  0  0  0  0  0  0  0  0  0  0  0
   -1.2205   -0.3837   -0.1769 C   0  0  0  0  0  0  0  0  0  0  0  0
   -0.1438   -1.0783    0.2803 N   0  0  0  0  0  0  0  0  0  0  0  0
    1.0920   -0.5169    0.4091 C   0  0  0  0  0  0  0  0  0  0  0  0
    1.2701    0.8381    0.0562 C   0  0  0  0  0  0  0  0  0  0  0  0
    2.5145    1.4559    0.1706 O   0  0  0  0  0  0  0  0  0  0  0  0
    0.1720    1.5682   -0.4165 C   0  0  0  0  0  0  0  0  0  0  0  0
   -1.0768    0.9599   -0.5346 C   0  0  0  0  0  0  0  0  0  0  0  0
    2.1757   -1.3245    0.9010 N   0  0  0  0  0  4  0  0  0  0  0  0
    3.4441   -0.8138    1.0522 O   0  0  0  0  0  1  0  0  0  0  0  0
    1.9702   -2.5188    1.2005 O   0  0  0  0  0  0  0  0  0  0  0  0
   -3.2928   -0.5392    0.3451 H   0  0  0  0  0  0  0  0  0  0  0  0
   -2.8915   -1.0336   -1.3502 H   0  0  0  0  0  0  0  0  0  0  0  0
   -2.4783   -2.1194    0.0315 H   0  0  0  0  0  0  0  0  0  0  0  0
    2.6508    2.4282   -0.0806 H   0  0  0  0  0  0  0  0  0  0  0  0
    0.2864    2.6087   -0.6927 H   0  0  0  0  0  0  0  0  0  0  0  0
   -1.9227    1.5288   -0.9006 H   0  0  0  0  0  0  0  0  0  0  0  0
  1  2  1  0
  2  3  2  0
  3  4  1  0
  4  5  2  0
  5  6  1  0
  5  7  1  0
  7  8  2  0
  4  9  1  0
  9 10  1  0
  9 11  2  0
  8  2  1  0
  1 12  1  0
  1 13  1  0
  1 14  1  0
  6 15  1  0
  7 16  1  0
  8 17  1  0
M  CHG  2   9   1  10  -1
M  END
