
     RDKit          3D

 31 31  0  0  0  0  0  0  0  0999 V2000
   -3.3486   -1.1500   -0.6129 C   0  0  0  0  0  0  0  0  0  0  0  0
   -2.6959    0.1593   -0.1187 C   0  0  0  0  0  0  0  0  0  0  0  0
   -3.2348    0.5019    1.2874 C   0  0  0  0  0  0  0  0  0  0  0  0
   -3.1324    1.2928   -1.0779 C   0  0  0  0  0  0  0  0  0  0  0  0
   -1.1650   -0.0219   -0.0528 C   0  0  0  0  0  0  0  0  0  0  0  0
   -0.2667    0.7760   -0.7990 C   0  0  0  0  0  0  0  0  0  0  0  0
    1.1145    0.5798   -0.7111 C   0  0  0  0  0  0  0  0  0  0  0  0
    1.6449   -0.4162    0.1210 C   0  0  0  0  0  0  0  0  0  0  0  0
    0.7647   -1.2137    0.8671 C   0  0  0  0  0  0  0  0  0  0  0  0
   -0.6160   -1.0201    0.7815 C   0  0  0  0  0  0  0  0  0  0  0  0
    3.1087   -0.6165    0.2098 C   0  0  0  0  0  0  0  0  0  0  0  0
    3.5756   -1.5298    0.9449 O   0  0  0  0  0  0  0  0  0  0  0  0
    3.9665    0.1767   -0.5676 O   0  0  0  0  0  0  0  0  0  0  0  0
    5.3531    0.2975   -0.3896 C   0  0  0  0  0  0  0  0  0  0  0  0
    5.9526    0.1695    0.7941 C   0  0  0  0  0  0  0  0  0  0  0  0
   -2.9396   -1.4343   -1.6067 H   0  0  0  0  0  0  0  0  0  0  0  0
   -3.1671   -1.9885    0.0915 H   0  0  0  0  0  0  0  0  0  0  0  0
   -4.4496   -1.0299   -0.7095 H   0  0  0  0  0  0  0  0  0  0  0  0
   -3.0522   -0.3231    2.0072 H   0  0  0  0  0  0  0  0  0  0  0  0
   -4.3318    0.6793    1.2569 H   0  0  0  0  0  0  0  0  0  0  0  0
   -2.7430    1.4197    1.6764 H   0  0  0  0  0  0  0  0  0  0  0  0
   -4.2399    1.3894   -1.0961 H   0  0  0  0  0  0  0  0  0  0  0  0
   -2.7185    2.2709   -0.7499 H   0  0  0  0  0  0  0  0  0  0  0  0
   -2.7997    1.0823   -2.1174 H   0  0  0  0  0  0  0  0  0  0  0  0
   -0.6098    1.5592   -1.4580 H   0  0  0  0  0  0  0  0  0  0  0  0
    1.7674    1.2131   -1.2987 H   0  0  0  0  0  0  0  0  0  0  0  0
    1.1418   -1.9907    1.5205 H   0  0  0  0  0  0  0  0  0  0  0  0
   -1.2548   -1.6595    1.3753 H   0  0  0  0  0  0  0  0  0  0  0  0
    5.9580    0.5497   -1.2509 H   0  0  0  0  0  0  0  0  0  0  0  0
    7.0257    0.2889    0.8689 H   0  0  0  0  0  0  0  0  0  0  0  0
    5.3918   -0.0117    1.7002 H   0  0  0  0  0  0  0  0  0  0  0  0
  1  2  1  0
  2  3  1  0
  2  4  1  0
  2  5  1  0
  5  6  2  0
  6  7  1  0
  7  8  2  0
  8  9  1  0
  9 10  2  0
  8 11  1  0
 11 12  2  0
 11 13  1  0
 13 14  1  0
 14 15  2  3
 10  5  1  0
  1 16  1  0
  1 17  1  0
  1 18  1  0
  3 19  1  0
  3 20  1  0
  3 21  1  0
  4 22  1  0
  4 23  1  0
  4 24  1  0
  6 25  1  0
  7 26  1  0
  9 27  1  0
 10 28  1  0
 14 29  1  0
 15 30  1  0
 15 31  1  0
M  END
