
     RDKit          3D

 23 22  0  0  0  0  0  0  0  0999 V2000
    4.2677   -0.3166    0.7563 C   0  0  0  0  0  0  0  0  0  0  0  0
    2.7862   -0.1576    0.8020 C   0  0  0  0  0  0  0  0  0  0  0  0
    2.2832    0.8291    1.4052 O   0  0  0  0  0  0  0  0  0  0  0  0
    1.9705   -1.1351    0.2212 O   0  0  0  0  0  0  0  0  0  0  0  0
    0.5467   -1.0540    0.1939 C   0  0  0  0  0  0  0  0  0  0  0  0
    0.0889   -0.0302   -0.8530 C   0  0  0  0  0  0  0  0  0  0  0  0
   -1.4335   -0.0353   -1.0603 C   0  0  0  0  0  0  0  0  0  0  0  0
   -2.1933    0.5478    0.1428 C   0  0  0  0  0  0  0  0  0  0  0  0
   -3.6915    0.6847   -0.1382 C   0  0  0  0  0  0  0  0  0  0  0  0
   -4.5591   -1.0492   -0.2377 Br  0  0  0  0  0  0  0  0  0  0  0  0
    4.6169   -0.7986    1.6929 H   0  0  0  0  0  0  0  0  0  0  0  0
    4.5542   -0.9505   -0.1088 H   0  0  0  0  0  0  0  0  0  0  0  0
    4.7548    0.6757    0.6502 H   0  0  0  0  0  0  0  0  0  0  0  0
    0.1669   -0.7899    1.2039 H   0  0  0  0  0  0  0  0  0  0  0  0
    0.1483   -2.0557   -0.0737 H   0  0  0  0  0  0  0  0  0  0  0  0
    0.5731   -0.2800   -1.8221 H   0  0  0  0  0  0  0  0  0  0  0  0
    0.4259    0.9884   -0.5636 H   0  0  0  0  0  0  0  0  0  0  0  0
   -1.6579    0.5794   -1.9595 H   0  0  0  0  0  0  0  0  0  0  0  0
   -1.7775   -1.0717   -1.2674 H   0  0  0  0  0  0  0  0  0  0  0  0
   -1.7885    1.5566    0.3765 H   0  0  0  0  0  0  0  0  0  0  0  0
   -2.0544   -0.0956    1.0371 H   0  0  0  0  0  0  0  0  0  0  0  0
   -4.1657    1.2558    0.6878 H   0  0  0  0  0  0  0  0  0  0  0  0
   -3.8623    1.2396   -1.0852 H   0  0  0  0  0  0  0  0  0  0  0  0
  1  2  1  0
  2  3  2  0
  2  4  1  0
  4  5  1  0
  5  6  1  0
  6  7  1  0
  7  8  1  0
  8  9  1  0
  9 10  1  0
  1 11  1  0
  1 12  1  0
  1 13  1  0
  5 14  1  0
  5 15  1  0
  6 16  1  0
  6 17  1  0
  7 18  1  0
  7 19  1  0
  8 20  1  0
  8 21  1  0
  9 22  1  0
  9 23  1  0
M  END
