
     RDKit          3D

 16 16  0  0  0  0  0  0  0  0999 V2000
   -2.6216   -0.4001    1.0006 O   0  0  0  0  0  0  0  0  0  0  0  0
   -2.0717    0.1886   -0.1458 C   0  0  0  0  0  0  0  0  0  0  0  0
   -0.5752    0.0419   -0.1341 C   0  0  0  0  0  0  0  0  0  0  0  0
    0.2319    1.0546    0.4099 C   0  0  0  0  0  0  0  0  0  0  0  0
    1.6225    0.9017    0.4510 C   0  0  0  0  0  0  0  0  0  0  0  0
    2.2122   -0.2674   -0.0409 C   0  0  0  0  0  0  0  0  0  0  0  0
    1.4132   -1.2851   -0.5691 C   0  0  0  0  0  0  0  0  0  0  0  0
    0.0236   -1.1353   -0.6113 C   0  0  0  0  0  0  0  0  0  0  0  0
    2.7147    2.2864    1.1841 Br  0  0  0  0  0  0  0  0  0  0  0  0
   -2.4486    0.2260    1.7517 H   0  0  0  0  0  0  0  0  0  0  0  0
   -2.3641    1.2617   -0.2105 H   0  0  0  0  0  0  0  0  0  0  0  0
   -2.4921   -0.3149   -1.0423 H   0  0  0  0  0  0  0  0  0  0  0  0
   -0.2179    1.9589    0.8011 H   0  0  0  0  0  0  0  0  0  0  0  0
    3.2873   -0.3897   -0.0097 H   0  0  0  0  0  0  0  0  0  0  0  0
    1.8705   -2.1921   -0.9429 H   0  0  0  0  0  0  0  0  0  0  0  0
   -0.5848   -1.9352   -1.0150 H   0  0  0  0  0  0  0  0  0  0  0  0
  1  2  1  0
  2  3  1  0
  3  4  2  0
  4  5  1  0
  5  6  2  0
  6  7  1  0
  7  8  2  0
  5  9  1  0
  8  3  1  0
  1 10  1  0
  2 11  1  0
  2 12  1  0
  4 13  1  0
  6 14  1  0
  7 15  1  0
  8 16  1  0
M  END
