
     RDKit          3D

 20 19  0  0  0  0  0  0  0  0999 V2000
   -1.5983   -1.1334   -0.6780 C   0  0  0  0  0  0  0  0  0  0  0  0
   -1.0139    0.2228   -0.2531 C   0  0  0  0  0  0  0  0  0  0  0  0
   -1.2853    0.4740    1.2393 C   0  0  0  0  0  0  0  0  0  0  0  0
    0.4859    0.3619   -0.6458 C   0  0  0  0  0  0  0  0  0  0  0  0
    0.8949    1.7689   -0.5642 N   0  0  0  0  0  0  0  0  0  0  0  0
    1.4359   -0.5390    0.1738 C   0  0  0  0  0  0  0  0  0  0  0  0
    2.7318   -0.4644   -0.3539 O   0  0  0  0  0  0  0  0  0  0  0  0
   -1.3972   -1.3240   -1.7536 H   0  0  0  0  0  0  0  0  0  0  0  0
   -1.1714   -1.9630   -0.0770 H   0  0  0  0  0  0  0  0  0  0  0  0
   -2.6998   -1.1323   -0.5324 H   0  0  0  0  0  0  0  0  0  0  0  0
   -1.5736    0.9990   -0.8221 H   0  0  0  0  0  0  0  0  0  0  0  0
   -0.8932    1.4635    1.5516 H   0  0  0  0  0  0  0  0  0  0  0  0
   -0.8261   -0.3170    1.8686 H   0  0  0  0  0  0  0  0  0  0  0  0
   -2.3802    0.4722    1.4280 H   0  0  0  0  0  0  0  0  0  0  0  0
    0.5743    0.0516   -1.7122 H   0  0  0  0  0  0  0  0  0  0  0  0
    1.7938    1.8899   -1.0853 H   0  0  0  0  0  0  0  0  0  0  0  0
    1.0818    2.0289    0.4313 H   0  0  0  0  0  0  0  0  0  0  0  0
    1.4528   -0.2147    1.2378 H   0  0  0  0  0  0  0  0  0  0  0  0
    1.0915   -1.5943    0.1300 H   0  0  0  0  0  0  0  0  0  0  0  0
    3.2962   -1.0507    0.2145 H   0  0  0  0  0  0  0  0  0  0  0  0
  1  2  1  0
  2  3  1  0
  2  4  1  0
  4  5  1  0
  4  6  1  0
  6  7  1  0
  1  8  1  0
  1  9  1  0
  1 10  1  0
  2 11  1  0
  3 12  1  0
  3 13  1  0
  3 14  1  0
  4 15  1  0
  5 16  1  0
  5 17  1  0
  6 18  1  0
  6 19  1  0
  7 20  1  0
M  END
