
     RDKit          3D

 16 16  0  0  0  0  0  0  0  0999 V2000
   -2.8977    1.7832   -0.0922 Cl  0  0  0  0  0  0  0  0  0  0  0  0
   -1.3365    0.9827    0.0565 C   0  0  0  0  0  0  0  0  0  0  0  0
   -0.2775    1.7234    0.5930 C   0  0  0  0  0  0  0  0  0  0  0  0
    1.0002    1.1710    0.6866 C   0  0  0  0  0  0  0  0  0  0  0  0
    1.2401   -0.1352    0.2361 C   0  0  0  0  0  0  0  0  0  0  0  0
    2.5850   -0.7347    0.3220 C   0  0  0  0  0  0  0  0  0  0  0  0
    3.5555   -0.0903    0.8015 O   0  0  0  0  0  0  0  0  0  0  0  0
    0.1815   -0.8814   -0.3023 C   0  0  0  0  0  0  0  0  0  0  0  0
   -1.1151   -0.3420   -0.3903 C   0  0  0  0  0  0  0  0  0  0  0  0
   -2.1755   -1.1481   -0.9379 N   0  0  0  0  0  4  0  0  0  0  0  0
   -1.8813   -2.1888   -1.7890 O   0  0  0  0  0  1  0  0  0  0  0  0
   -3.3532   -1.0079   -0.5499 O   0  0  0  0  0  0  0  0  0  0  0  0
   -0.4422    2.7387    0.9316 H   0  0  0  0  0  0  0  0  0  0  0  0
    1.8006    1.7684    1.1051 H   0  0  0  0  0  0  0  0  0  0  0  0
    2.7509   -1.7448   -0.0304 H   0  0  0  0  0  0  0  0  0  0  0  0
    0.3650   -1.8941   -0.6406 H   0  0  0  0  0  0  0  0  0  0  0  0
  1  2  1  0
  2  3  2  0
  3  4  1  0
  4  5  2  0
  5  6  1  0
  6  7  2  0
  5  8  1  0
  8  9  2  0
  9 10  1  0
 10 11  1  0
 10 12  2  0
  9  2  1  0
  3 13  1  0
  4 14  1  0
  6 15  1  0
  8 16  1  0
M  CHG  2  10   1  11  -1
M  END
