
     RDKit          3D

 23 24  0  0  0  0  0  0  0  0999 V2000
    5.2266    1.5569   -1.4100 S   0  0  0  0  0  0  0  0  0  0  0  0
    3.7559    0.9261   -1.2229 C   0  0  0  0  0  0  0  0  0  0  0  0
    2.5953    0.4284   -1.0744 N   0  0  0  0  0  0  0  0  0  0  0  0
    2.2492   -0.3322    0.1185 C   0  0  0  0  0  0  0  0  0  0  0  0
    0.8073   -0.7747    0.0369 C   0  0  0  0  0  0  0  0  0  0  0  0
    0.5368   -2.1283   -0.2311 C   0  0  0  0  0  0  0  0  0  0  0  0
   -0.7750   -2.5915   -0.3222 C   0  0  0  0  0  0  0  0  0  0  0  0
   -1.8439   -1.7143   -0.1555 C   0  0  0  0  0  0  0  0  0  0  0  0
   -1.6101   -0.3562    0.0985 C   0  0  0  0  0  0  0  0  0  0  0  0
   -2.6937    0.5227    0.2552 C   0  0  0  0  0  0  0  0  0  0  0  0
   -2.4710    1.8779    0.4993 C   0  0  0  0  0  0  0  0  0  0  0  0
   -1.1689    2.3688    0.5871 C   0  0  0  0  0  0  0  0  0  0  0  0
   -0.0786    1.5085    0.4351 C   0  0  0  0  0  0  0  0  0  0  0  0
   -0.2776    0.1315    0.1926 C   0  0  0  0  0  0  0  0  0  0  0  0
    2.4060    0.2850    1.0297 H   0  0  0  0  0  0  0  0  0  0  0  0
    2.9285   -1.2096    0.2046 H   0  0  0  0  0  0  0  0  0  0  0  0
    1.3467   -2.8342   -0.3690 H   0  0  0  0  0  0  0  0  0  0  0  0
   -0.9640   -3.6381   -0.5243 H   0  0  0  0  0  0  0  0  0  0  0  0
   -2.8550   -2.0969   -0.2303 H   0  0  0  0  0  0  0  0  0  0  0  0
   -3.7130    0.1613    0.1868 H   0  0  0  0  0  0  0  0  0  0  0  0
   -3.3106    2.5506    0.6182 H   0  0  0  0  0  0  0  0  0  0  0  0
   -1.0026    3.4222    0.7727 H   0  0  0  0  0  0  0  0  0  0  0  0
    0.9117    1.9362    0.5045 H   0  0  0  0  0  0  0  0  0  0  0  0
  1  2  2  0
  2  3  2  0
  3  4  1  0
  4  5  1  0
  5  6  2  0
  6  7  1  0
  7  8  2  0
  8  9  1  0
  9 10  2  0
 10 11  1  0
 11 12  2  0
 12 13  1  0
 13 14  2  0
 14  5  1  0
 14  9  1  0
  4 15  1  0
  4 16  1  0
  6 17  1  0
  7 18  1  0
  8 19  1  0
 10 20  1  0
 11 21  1  0
 12 22  1  0
 13 23  1  0
M  END
