
     RDKit          3D

 12 12  0  0  0  0  0  0  0  0999 V2000
    1.9184    2.4118   -0.0314 Cl  0  0  0  0  0  0  0  0  0  0  0  0
    0.8151    1.0426   -0.0140 C   0  0  0  0  0  0  0  0  0  0  0  0
    1.2930   -0.2790    0.0446 C   0  0  0  0  0  0  0  0  0  0  0  0
    3.0162   -0.6244    0.1032 Cl  0  0  0  0  0  0  0  0  0  0  0  0
    0.3859   -1.3461    0.0570 C   0  0  0  0  0  0  0  0  0  0  0  0
   -0.9896   -1.1008    0.0112 C   0  0  0  0  0  0  0  0  0  0  0  0
   -1.4643    0.2120   -0.0470 C   0  0  0  0  0  0  0  0  0  0  0  0
   -0.5642    1.2815   -0.0595 C   0  0  0  0  0  0  0  0  0  0  0  0
    0.7459   -2.3662    0.1020 H   0  0  0  0  0  0  0  0  0  0  0  0
   -1.6872   -1.9283    0.0209 H   0  0  0  0  0  0  0  0  0  0  0  0
   -2.5294    0.4009   -0.0823 H   0  0  0  0  0  0  0  0  0  0  0  0
   -0.9398    2.2959   -0.1047 H   0  0  0  0  0  0  0  0  0  0  0  0
  1  2  1  0
  2  3  2  0
  3  4  1  0
  3  5  1  0
  5  6  2  0
  6  7  1  0
  7  8  2  0
  8  2  1  0
  5  9  1  0
  6 10  1  0
  7 11  1  0
  8 12  1  0
M  END
