
     RDKit          3D

 39 38  0  0  0  0  0  0  0  0999 V2000
   -5.7680   -0.6460   -1.9259 C   0  0  0  0  0  0  0  0  0  0  0  0
   -4.6465   -0.6329   -0.8911 C   0  0  0  0  0  0  0  0  0  0  0  0
   -4.4879    0.7608   -0.2657 C   0  0  0  0  0  0  0  0  0  0  0  0
   -3.4621    0.7833    0.8787 C   0  0  0  0  0  0  0  0  0  0  0  0
   -2.0162    0.6357    0.3811 C   0  0  0  0  0  0  0  0  0  0  0  0
   -1.0197    0.7830    1.5413 C   0  0  0  0  0  0  0  0  0  0  0  0
    0.4447    0.7611    1.0736 C   0  0  0  0  0  0  0  0  0  0  0  0
    0.9139   -0.6461    0.6651 C   0  0  0  0  0  0  0  0  0  0  0  0
    2.3808   -0.6663    0.2070 C   0  0  0  0  0  0  0  0  0  0  0  0
    3.3690   -0.5075    1.3698 C   0  0  0  0  0  0  0  0  0  0  0  0
    4.7054   -0.7149    0.9169 O   0  0  0  0  0  0  0  0  0  0  0  0
    5.4210    0.2296    0.1721 C   0  0  0  0  0  0  0  0  0  0  0  0
    4.9170    1.3533   -0.1013 O   0  0  0  0  0  0  0  0  0  0  0  0
    6.7817   -0.1152   -0.3347 C   0  0  0  0  0  0  0  0  0  0  0  0
    6.6689   -0.8131   -1.6178 C   0  0  0  0  0  0  0  0  0  0  0  0
    6.5798   -1.3646   -2.6313 N   0  0  0  0  0  0  0  0  0  0  0  0
   -5.5507    0.0792   -2.7390 H   0  0  0  0  0  0  0  0  0  0  0  0
   -6.7367   -0.3840   -1.4495 H   0  0  0  0  0  0  0  0  0  0  0  0
   -5.8539   -1.6608   -2.3685 H   0  0  0  0  0  0  0  0  0  0  0  0
   -4.8809   -1.3775   -0.0995 H   0  0  0  0  0  0  0  0  0  0  0  0
   -3.7040   -0.9356   -1.3940 H   0  0  0  0  0  0  0  0  0  0  0  0
   -5.4692    1.0812    0.1486 H   0  0  0  0  0  0  0  0  0  0  0  0
   -4.1968    1.4962   -1.0476 H   0  0  0  0  0  0  0  0  0  0  0  0
   -3.6951   -0.0218    1.6099 H   0  0  0  0  0  0  0  0  0  0  0  0
   -3.5624    1.7566    1.4073 H   0  0  0  0  0  0  0  0  0  0  0  0
   -1.8917   -0.3630   -0.0837 H   0  0  0  0  0  0  0  0  0  0  0  0
   -1.8087    1.4151   -0.3845 H   0  0  0  0  0  0  0  0  0  0  0  0
   -1.2016    1.7570    2.0467 H   0  0  0  0  0  0  0  0  0  0  0  0
   -1.1889   -0.0208    2.2913 H   0  0  0  0  0  0  0  0  0  0  0  0
    1.0691    1.1223    1.9175 H   0  0  0  0  0  0  0  0  0  0  0  0
    0.5809    1.4692    0.2270 H   0  0  0  0  0  0  0  0  0  0  0  0
    0.2957   -1.0057   -0.1838 H   0  0  0  0  0  0  0  0  0  0  0  0
    0.7727   -1.3558    1.5095 H   0  0  0  0  0  0  0  0  0  0  0  0
    2.5498    0.1295   -0.5500 H   0  0  0  0  0  0  0  0  0  0  0  0
    2.5779   -1.6432   -0.2862 H   0  0  0  0  0  0  0  0  0  0  0  0
    3.1459   -1.2684    2.1475 H   0  0  0  0  0  0  0  0  0  0  0  0
    3.2835    0.4973    1.8353 H   0  0  0  0  0  0  0  0  0  0  0  0
    7.2970   -0.7740    0.3952 H   0  0  0  0  0  0  0  0  0  0  0  0
    7.3862    0.8066   -0.4704 H   0  0  0  0  0  0  0  0  0  0  0  0
  1  2  1  0
  2  3  1  0
  3  4  1  0
  4  5  1  0
  5  6  1  0
  6  7  1  0
  7  8  1  0
  8  9  1  0
  9 10  1  0
 10 11  1  0
 11 12  1  0
 12 13  2  0
 12 14  1  0
 14 15  1  0
 15 16  3  0
  1 17  1  0
  1 18  1  0
  1 19  1  0
  2 20  1  0
  2 21  1  0
  3 22  1  0
  3 23  1  0
  4 24  1  0
  4 25  1  0
  5 26  1  0
  5 27  1  0
  6 28  1  0
  6 29  1  0
  7 30  1  0
  7 31  1  0
  8 32  1  0
  8 33  1  0
  9 34  1  0
  9 35  1  0
 10 36  1  0
 10 37  1  0
 14 38  1  0
 14 39  1  0
M  END
