
     RDKit          3D

 26 27  0  0  0  0  0  0  0  0999 V2000
   -5.6634    0.6872    0.6809 O   0  0  0  0  0  0  0  0  0  0  0  0
   -4.3331    0.4393    0.3501 C   0  0  0  0  0  0  0  0  0  0  0  0
   -3.3564    0.4660    1.3496 C   0  0  0  0  0  0  0  0  0  0  0  0
   -2.0170    0.2191    1.0330 C   0  0  0  0  0  0  0  0  0  0  0  0
   -1.6378   -0.0590   -0.2926 C   0  0  0  0  0  0  0  0  0  0  0  0
   -2.6268   -0.0833   -1.2936 C   0  0  0  0  0  0  0  0  0  0  0  0
   -3.9651    0.1641   -0.9729 C   0  0  0  0  0  0  0  0  0  0  0  0
   -0.2193   -0.3182   -0.6248 C   0  0  0  0  0  0  0  0  0  0  0  0
    0.1098   -0.5910   -1.8120 O   0  0  0  0  0  0  0  0  0  0  0  0
    0.7436   -0.3143    0.3948 O   0  0  0  0  0  0  0  0  0  0  0  0
    2.1319   -0.2562    0.2020 C   0  0  0  0  0  0  0  0  0  0  0  0
    2.9646   -0.8300    1.1717 C   0  0  0  0  0  0  0  0  0  0  0  0
    4.3548   -0.7874    1.0272 C   0  0  0  0  0  0  0  0  0  0  0  0
    4.9239   -0.1588   -0.0833 C   0  0  0  0  0  0  0  0  0  0  0  0
    4.1034    0.4346   -1.0462 C   0  0  0  0  0  0  0  0  0  0  0  0
    2.7124    0.3929   -0.9051 C   0  0  0  0  0  0  0  0  0  0  0  0
   -6.3945    0.6751   -0.0207 H   0  0  0  0  0  0  0  0  0  0  0  0
   -3.6356    0.6786    2.3738 H   0  0  0  0  0  0  0  0  0  0  0  0
   -1.2805    0.2467    1.8262 H   0  0  0  0  0  0  0  0  0  0  0  0
   -2.3674   -0.2928   -2.3238 H   0  0  0  0  0  0  0  0  0  0  0  0
   -4.7149    0.1418   -1.7535 H   0  0  0  0  0  0  0  0  0  0  0  0
    2.5315   -1.3175    2.0360 H   0  0  0  0  0  0  0  0  0  0  0  0
    4.9906   -1.2402    1.7770 H   0  0  0  0  0  0  0  0  0  0  0  0
    6.0001   -0.1242   -0.1934 H   0  0  0  0  0  0  0  0  0  0  0  0
    4.5456    0.9353   -1.8978 H   0  0  0  0  0  0  0  0  0  0  0  0
    2.0995    0.8923   -1.6427 H   0  0  0  0  0  0  0  0  0  0  0  0
  1  2  1  0
  2  3  2  0
  3  4  1  0
  4  5  2  0
  5  6  1  0
  6  7  2  0
  5  8  1  0
  8  9  2  0
  8 10  1  0
 10 11  1  0
 11 12  2  0
 12 13  1  0
 13 14  2  0
 14 15  1  0
 15 16  2  0
  7  2  1  0
 16 11  1  0
  1 17  1  0
  3 18  1  0
  4 19  1  0
  6 20  1  0
  7 21  1  0
 12 22  1  0
 13 23  1  0
 14 24  1  0
 15 25  1  0
 16 26  1  0
M  END
