
     RDKit          3D

 14 14  0  0  0  0  0  0  0  0999 V2000
   -2.2564    0.1621    0.1235 C   0  0  0  0  0  0  0  0  0  0  0  0
   -0.7632    0.1188    0.0545 C   0  0  0  0  0  0  0  0  0  0  0  0
   -0.0408    1.2565    0.2510 N   0  0  0  0  0  0  0  0  0  0  0  0
    1.3183    1.2617    0.1970 C   0  0  0  0  0  0  0  0  0  0  0  0
    2.0121    0.0771   -0.0661 C   0  0  0  0  0  0  0  0  0  0  0  0
    1.2942   -1.1027   -0.2711 C   0  0  0  0  0  0  0  0  0  0  0  0
   -0.1009   -1.0873   -0.2116 C   0  0  0  0  0  0  0  0  0  0  0  0
    2.1920    2.7576    0.4584 Cl  0  0  0  0  0  0  0  0  0  0  0  0
   -2.6862   -0.1620   -0.8476 H   0  0  0  0  0  0  0  0  0  0  0  0
   -2.6075    1.1928    0.3428 H   0  0  0  0  0  0  0  0  0  0  0  0
   -2.6145   -0.5153    0.9270 H   0  0  0  0  0  0  0  0  0  0  0  0
    3.0936    0.0702   -0.1113 H   0  0  0  0  0  0  0  0  0  0  0  0
    1.8180   -2.0275   -0.4758 H   0  0  0  0  0  0  0  0  0  0  0  0
   -0.6588   -2.0018   -0.3705 H   0  0  0  0  0  0  0  0  0  0  0  0
  1  2  1  0
  2  3  2  0
  3  4  1  0
  4  5  2  0
  5  6  1  0
  6  7  2  0
  4  8  1  0
  7  2  1  0
  1  9  1  0
  1 10  1  0
  1 11  1  0
  5 12  1  0
  6 13  1  0
  7 14  1  0
M  END
