
     RDKit          3D

 26 25  0  0  0  0  0  0  0  0999 V2000
   -4.0491    0.5406    0.6501 C   0  0  0  0  0  0  0  0  0  0  0  0
   -2.7057    0.8916    0.0174 C   0  0  0  0  0  0  0  0  0  0  0  0
   -1.7750   -0.3260   -0.0176 C   0  0  0  0  0  0  0  0  0  0  0  0
   -0.4265    0.0305   -0.6539 C   0  0  0  0  0  0  0  0  0  0  0  0
    0.5072   -1.1886   -0.6850 C   0  0  0  0  0  0  0  0  0  0  0  0
    1.8488   -0.8739   -1.3637 C   0  0  0  0  0  0  0  0  0  0  0  0
    2.6629    0.1238   -0.5881 C   0  0  0  0  0  0  0  0  0  0  0  0
    3.2214   -0.1903    0.5859 C   0  0  0  0  0  0  0  0  0  0  0  0
    4.0275    0.7679    1.3567 C   0  0  0  0  0  0  0  0  0  0  0  0
    4.2261    1.9416    0.9434 O   0  0  0  0  0  0  0  0  0  0  0  0
   -4.7007    1.4397    0.6618 H   0  0  0  0  0  0  0  0  0  0  0  0
   -4.5547   -0.2569    0.0649 H   0  0  0  0  0  0  0  0  0  0  0  0
   -3.9044    0.1933    1.6954 H   0  0  0  0  0  0  0  0  0  0  0  0
   -2.2334    1.7079    0.6064 H   0  0  0  0  0  0  0  0  0  0  0  0
   -2.8808    1.2596   -1.0172 H   0  0  0  0  0  0  0  0  0  0  0  0
   -1.6070   -0.6905    1.0200 H   0  0  0  0  0  0  0  0  0  0  0  0
   -2.2557   -1.1395   -0.6048 H   0  0  0  0  0  0  0  0  0  0  0  0
    0.0480    0.8473   -0.0672 H   0  0  0  0  0  0  0  0  0  0  0  0
   -0.5939    0.3924   -1.6923 H   0  0  0  0  0  0  0  0  0  0  0  0
    0.6838   -1.5568    0.3493 H   0  0  0  0  0  0  0  0  0  0  0  0
    0.0148   -2.0073   -1.2541 H   0  0  0  0  0  0  0  0  0  0  0  0
    1.6603   -0.4762   -2.3845 H   0  0  0  0  0  0  0  0  0  0  0  0
    2.4329   -1.8130   -1.4775 H   0  0  0  0  0  0  0  0  0  0  0  0
    2.8091    1.1077   -1.0177 H   0  0  0  0  0  0  0  0  0  0  0  0
    3.0855   -1.1832    0.9969 H   0  0  0  0  0  0  0  0  0  0  0  0
    4.4583    0.4583    2.2994 H   0  0  0  0  0  0  0  0  0  0  0  0
  1  2  1  0
  2  3  1  0
  3  4  1  0
  4  5  1  0
  5  6  1  0
  6  7  1  0
  7  8  2  0
  8  9  1  0
  9 10  2  0
  1 11  1  0
  1 12  1  0
  1 13  1  0
  2 14  1  0
  2 15  1  0
  3 16  1  0
  3 17  1  0
  4 18  1  0
  4 19  1  0
  5 20  1  0
  5 21  1  0
  6 22  1  0
  6 23  1  0
  7 24  1  0
  8 25  1  0
  9 26  1  0
M  END
