
     RDKit          3D

 20 20  0  0  0  0  0  0  0  0999 V2000
    2.6386   -0.3446   -0.5444 C   0  0  0  0  0  0  0  0  0  0  0  0
    1.2270   -0.6045   -0.0910 C   0  0  0  0  0  0  0  0  0  0  0  0
    0.2145    0.3575   -0.3099 C   0  0  0  0  0  0  0  0  0  0  0  0
    0.5788    1.5790   -0.9811 N   0  0  0  0  0  0  0  0  0  0  0  0
    0.0798    2.7226   -0.7294 C   0  0  0  0  0  0  0  0  0  0  0  0
   -0.5399    4.1771   -0.4148 S   0  0  0  0  0  0  0  0  0  0  0  0
   -1.1184    0.0699    0.1035 C   0  0  0  0  0  0  0  0  0  0  0  0
   -1.3806   -1.1230    0.7981 C   0  0  0  0  0  0  0  0  0  0  0  0
   -0.3639   -2.0429    1.0425 C   0  0  0  0  0  0  0  0  0  0  0  0
    0.9298   -1.7920    0.5939 C   0  0  0  0  0  0  0  0  0  0  0  0
   -2.2740    0.9905   -0.1883 C   0  0  0  0  0  0  0  0  0  0  0  0
    3.2923   -1.2277   -0.3804 H   0  0  0  0  0  0  0  0  0  0  0  0
    3.0592    0.5136    0.0209 H   0  0  0  0  0  0  0  0  0  0  0  0
    2.6489   -0.1075   -1.6293 H   0  0  0  0  0  0  0  0  0  0  0  0
   -2.3823   -1.3514    1.1416 H   0  0  0  0  0  0  0  0  0  0  0  0
   -0.5824   -2.9605    1.5735 H   0  0  0  0  0  0  0  0  0  0  0  0
    1.7028   -2.5256    0.7868 H   0  0  0  0  0  0  0  0  0  0  0  0
   -2.2696    1.8364    0.5297 H   0  0  0  0  0  0  0  0  0  0  0  0
   -3.2467    0.4621   -0.0925 H   0  0  0  0  0  0  0  0  0  0  0  0
   -2.2140    1.3711   -1.2294 H   0  0  0  0  0  0  0  0  0  0  0  0
  1  2  1  0
  2  3  2  0
  3  4  1  0
  4  5  2  0
  5  6  2  0
  3  7  1  0
  7  8  2  0
  8  9  1  0
  9 10  2  0
  7 11  1  0
 10  2  1  0
  1 12  1  0
  1 13  1  0
  1 14  1  0
  8 15  1  0
  9 16  1  0
 10 17  1  0
 11 18  1  0
 11 19  1  0
 11 20  1  0
M  END
