
     RDKit          3D

  9  8  0  0  0  0  0  0  0  0999 V2000
   -0.9036   -0.4878    0.0803 C   0  0  0  0  0  0  0  0  0  0  0  0
    0.1923    0.5591   -0.0877 C   0  0  0  0  0  0  0  0  0  0  0  0
    0.3460    1.6253    1.5229 Br  0  0  0  0  0  0  0  0  0  0  0  0
    1.4806   -0.0869   -0.3621 C   0  0  0  0  0  0  0  0  0  0  0  0
    2.4968   -0.5965   -0.5791 N   0  0  0  0  0  0  0  0  0  0  0  0
   -1.8743    0.0139    0.2786 H   0  0  0  0  0  0  0  0  0  0  0  0
   -1.0044   -1.0912   -0.8475 H   0  0  0  0  0  0  0  0  0  0  0  0
   -0.6705   -1.1648    0.9304 H   0  0  0  0  0  0  0  0  0  0  0  0
   -0.0629    1.2288   -0.9358 H   0  0  0  0  0  0  0  0  0  0  0  0
  1  2  1  0
  2  3  1  0
  2  4  1  0
  4  5  3  0
  1  6  1  0
  1  7  1  0
  1  8  1  0
  2  9  1  0
M  END
