
     RDKit          3D

 11 11  0  0  0  0  0  0  0  0999 V2000
   -2.1700   -2.0864   -0.0539 Br  0  0  0  0  0  0  0  0  0  0  0  0
   -0.7936   -0.7630   -0.0197 C   0  0  0  0  0  0  0  0  0  0  0  0
   -1.1255    0.5945   -0.0008 C   0  0  0  0  0  0  0  0  0  0  0  0
   -0.1037    1.5475    0.0241 C   0  0  0  0  0  0  0  0  0  0  0  0
    1.1976    1.1515    0.0298 N   0  0  0  0  0  0  0  0  0  0  0  0
    1.5424   -0.1642    0.0117 C   0  0  0  0  0  0  0  0  0  0  0  0
    0.5501   -1.1478   -0.0134 C   0  0  0  0  0  0  0  0  0  0  0  0
   -2.1615    0.9081   -0.0054 H   0  0  0  0  0  0  0  0  0  0  0  0
   -0.3454    2.6019    0.0389 H   0  0  0  0  0  0  0  0  0  0  0  0
    2.5866   -0.4469    0.0168 H   0  0  0  0  0  0  0  0  0  0  0  0
    0.8229   -2.1952   -0.0278 H   0  0  0  0  0  0  0  0  0  0  0  0
  1  2  1  0
  2  3  2  0
  3  4  1  0
  4  5  2  0
  5  6  1  0
  6  7  2  0
  7  2  1  0
  3  8  1  0
  4  9  1  0
  6 10  1  0
  7 11  1  0
M  END
