
     RDKit          3D

 17 16  0  0  0  0  0  0  0  0999 V2000
   -1.2952    1.2512   -0.2512 C   0  0  0  0  0  0  0  0  0  0  0  0
   -1.3315   -0.2047    0.2123 C   0  0  0  0  0  0  0  0  0  0  0  0
   -0.1169   -1.0341   -0.2661 C   0  0  0  0  0  0  0  0  0  0  0  0
   -0.3646   -2.3984   -0.0333 O   0  0  0  0  0  0  0  0  0  0  0  0
    1.2099   -0.6254    0.4133 C   0  0  0  0  0  0  0  0  0  0  0  0
    1.8252    0.5394   -0.2367 C   0  0  0  0  0  0  0  0  0  0  0  0
    2.3323    1.4942   -0.7704 C   0  0  0  0  0  0  0  0  0  0  0  0
   -0.5121    1.8152    0.2957 H   0  0  0  0  0  0  0  0  0  0  0  0
   -1.1067    1.3103   -1.3441 H   0  0  0  0  0  0  0  0  0  0  0  0
   -2.2731    1.7310   -0.0356 H   0  0  0  0  0  0  0  0  0  0  0  0
   -2.2558   -0.6690   -0.1961 H   0  0  0  0  0  0  0  0  0  0  0  0
   -1.4055   -0.2353    1.3212 H   0  0  0  0  0  0  0  0  0  0  0  0
   -0.0153   -0.9122   -1.3679 H   0  0  0  0  0  0  0  0  0  0  0  0
   -0.4504   -2.5239    0.9487 H   0  0  0  0  0  0  0  0  0  0  0  0
    1.0493   -0.4056    1.4903 H   0  0  0  0  0  0  0  0  0  0  0  0
    1.9339   -1.4653    0.3427 H   0  0  0  0  0  0  0  0  0  0  0  0
    2.7765    2.3325   -1.2391 H   0  0  0  0  0  0  0  0  0  0  0  0
  1  2  1  0
  2  3  1  0
  3  4  1  0
  3  5  1  0
  5  6  1  0
  6  7  3  0
  1  8  1  0
  1  9  1  0
  1 10  1  0
  2 11  1  0
  2 12  1  0
  3 13  1  0
  4 14  1  0
  5 15  1  0
  5 16  1  0
  7 17  1  0
M  END
