
     RDKit          3D

 18 18  0  0  0  0  0  0  0  0999 V2000
   -1.8242   -0.8991   -0.8757 C   0  0  0  0  0  0  0  0  0  0  0  0
   -0.5871   -0.2817   -0.2807 C   0  0  0  0  0  0  0  0  0  0  0  0
    0.5942   -1.0392   -0.2388 C   0  0  0  0  0  0  0  0  0  0  0  0
    1.7468   -0.5038    0.3436 C   0  0  0  0  0  0  0  0  0  0  0  0
    1.7198    0.7505    0.8628 N   0  0  0  0  0  0  0  0  0  0  0  0
    0.6004    1.5182    0.8289 C   0  0  0  0  0  0  0  0  0  0  0  0
   -0.5818    1.0354    0.2414 C   0  0  0  0  0  0  0  0  0  0  0  0
   -1.7450    1.8830    0.1910 N   0  0  0  0  0  4  0  0  0  0  0  0
   -2.5960    1.8463   -0.8892 O   0  0  0  0  0  1  0  0  0  0  0  0
   -1.9110    2.7706    1.0533 O   0  0  0  0  0  0  0  0  0  0  0  0
    2.9515   -1.2680    0.4007 N   0  0  0  0  0  0  0  0  0  0  0  0
   -1.7309   -2.0040   -0.9461 H   0  0  0  0  0  0  0  0  0  0  0  0
   -1.9883   -0.4982   -1.8976 H   0  0  0  0  0  0  0  0  0  0  0  0
   -2.7077   -0.6833   -0.2389 H   0  0  0  0  0  0  0  0  0  0  0  0
    0.6173   -2.0432   -0.6458 H   0  0  0  0  0  0  0  0  0  0  0  0
    0.6384    2.5166    1.2444 H   0  0  0  0  0  0  0  0  0  0  0  0
    3.8096   -0.8647    0.8381 H   0  0  0  0  0  0  0  0  0  0  0  0
    2.9940   -2.2352    0.0087 H   0  0  0  0  0  0  0  0  0  0  0  0
  1  2  1  0
  2  3  2  0
  3  4  1  0
  4  5  2  0
  5  6  1  0
  6  7  2  0
  7  8  1  0
  8  9  1  0
  8 10  2  0
  4 11  1  0
  7  2  1  0
  1 12  1  0
  1 13  1  0
  1 14  1  0
  3 15  1  0
  6 16  1  0
 11 17  1  0
 11 18  1  0
M  CHG  2   8   1   9  -1
M  END
