
     RDKit          3D

  9  9  0  0  0  0  0  0  0  0999 V2000
    2.4727    1.2968    0.0387 Br  0  0  0  0  0  0  0  0  0  0  0  0
    0.8255    0.3423    0.1443 C   0  0  0  0  0  0  0  0  0  0  0  0
    0.6641   -0.9890    0.4584 C   0  0  0  0  0  0  0  0  0  0  0  0
   -0.6146   -1.2875    0.4318 O   0  0  0  0  0  0  0  0  0  0  0  0
   -1.2975   -0.2101    0.1140 C   0  0  0  0  0  0  0  0  0  0  0  0
   -0.4345    0.8493   -0.0785 C   0  0  0  0  0  0  0  0  0  0  0  0
    1.4534   -1.6909    0.6923 H   0  0  0  0  0  0  0  0  0  0  0  0
   -2.3747   -0.1750    0.0213 H   0  0  0  0  0  0  0  0  0  0  0  0
   -0.6944    1.8642   -0.3479 H   0  0  0  0  0  0  0  0  0  0  0  0
  1  2  1  0
  2  3  2  0
  3  4  1  0
  4  5  1  0
  5  6  2  0
  6  2  1  0
  3  7  1  0
  5  8  1  0
  6  9  1  0
M  END
