
     RDKit          3D

 27 26  0  0  0  0  0  0  0  0999 V2000
    4.4275    1.2708    1.0036 O   0  0  0  0  0  0  0  0  0  0  0  0
    3.7395    0.0524    0.9222 C   0  0  0  0  0  0  0  0  0  0  0  0
    2.4096    0.2433    0.1879 C   0  0  0  0  0  0  0  0  0  0  0  0
    1.6183   -1.0718    0.1290 C   0  0  0  0  0  0  0  0  0  0  0  0
    0.3406   -0.9567   -0.7174 C   0  0  0  0  0  0  0  0  0  0  0  0
   -0.7418   -0.0998   -0.0434 C   0  0  0  0  0  0  0  0  0  0  0  0
   -2.0481   -0.1333   -0.8510 C   0  0  0  0  0  0  0  0  0  0  0  0
   -3.1150    0.8205   -0.2909 C   0  0  0  0  0  0  0  0  0  0  0  0
   -3.6899    0.3434    1.0448 C   0  0  0  0  0  0  0  0  0  0  0  0
   -5.0269    1.4082    1.5474 Cl  0  0  0  0  0  0  0  0  0  0  0  0
    4.8177    1.4372    0.1059 H   0  0  0  0  0  0  0  0  0  0  0  0
    3.5442   -0.3105    1.9540 H   0  0  0  0  0  0  0  0  0  0  0  0
    4.3647   -0.7089    0.4016 H   0  0  0  0  0  0  0  0  0  0  0  0
    2.6134    0.6029   -0.8444 H   0  0  0  0  0  0  0  0  0  0  0  0
    1.8193    1.0170    0.7230 H   0  0  0  0  0  0  0  0  0  0  0  0
    2.2608   -1.8567   -0.3271 H   0  0  0  0  0  0  0  0  0  0  0  0
    1.3598   -1.4049    1.1582 H   0  0  0  0  0  0  0  0  0  0  0  0
   -0.0601   -1.9825   -0.8731 H   0  0  0  0  0  0  0  0  0  0  0  0
    0.5883   -0.5371   -1.7172 H   0  0  0  0  0  0  0  0  0  0  0  0
   -0.3914    0.9514    0.0324 H   0  0  0  0  0  0  0  0  0  0  0  0
   -0.9265   -0.4903    0.9799 H   0  0  0  0  0  0  0  0  0  0  0  0
   -2.4495   -1.1702   -0.8806 H   0  0  0  0  0  0  0  0  0  0  0  0
   -1.8304    0.1734   -1.8977 H   0  0  0  0  0  0  0  0  0  0  0  0
   -3.9435    0.8842   -1.0297 H   0  0  0  0  0  0  0  0  0  0  0  0
   -2.6886    1.8407   -0.1737 H   0  0  0  0  0  0  0  0  0  0  0  0
   -2.9127    0.3695    1.8360 H   0  0  0  0  0  0  0  0  0  0  0  0
   -4.0794   -0.6924    0.9489 H   0  0  0  0  0  0  0  0  0  0  0  0
  1  2  1  0
  2  3  1  0
  3  4  1  0
  4  5  1  0
  5  6  1  0
  6  7  1  0
  7  8  1  0
  8  9  1  0
  9 10  1  0
  1 11  1  0
  2 12  1  0
  2 13  1  0
  3 14  1  0
  3 15  1  0
  4 16  1  0
  4 17  1  0
  5 18  1  0
  5 19  1  0
  6 20  1  0
  6 21  1  0
  7 22  1  0
  7 23  1  0
  8 24  1  0
  8 25  1  0
  9 26  1  0
  9 27  1  0
M  END
