
     RDKit          3D

 20 20  0  0  0  0  0  0  0  0999 V2000
   -1.7959   -1.6674   -0.5494 C   0  0  0  0  0  0  0  0  0  0  0  0
   -1.5222   -0.2138   -0.1648 C   0  0  0  0  0  0  0  0  0  0  0  0
   -2.1280    0.0671    1.1355 N   0  0  0  0  0  0  0  0  0  0  0  0
   -2.1727    1.2458    1.6144 C   0  0  0  0  0  0  0  0  0  0  0  0
   -2.2252    2.7382    2.2185 S   0  0  0  0  0  0  0  0  0  0  0  0
   -0.0298    0.0502   -0.1354 C   0  0  0  0  0  0  0  0  0  0  0  0
    0.5742    0.8040   -1.1572 C   0  0  0  0  0  0  0  0  0  0  0  0
    1.9529    1.0370   -1.1425 C   0  0  0  0  0  0  0  0  0  0  0  0
    2.7412    0.5155   -0.1137 C   0  0  0  0  0  0  0  0  0  0  0  0
    2.1529   -0.2428    0.9015 C   0  0  0  0  0  0  0  0  0  0  0  0
    0.7749   -0.4788    0.8914 C   0  0  0  0  0  0  0  0  0  0  0  0
   -2.8914   -1.8410   -0.6111 H   0  0  0  0  0  0  0  0  0  0  0  0
   -1.3491   -1.8914   -1.5418 H   0  0  0  0  0  0  0  0  0  0  0  0
   -1.3687   -2.3622    0.2052 H   0  0  0  0  0  0  0  0  0  0  0  0
   -2.0114    0.4314   -0.9299 H   0  0  0  0  0  0  0  0  0  0  0  0
   -0.0206    1.2119   -1.9650 H   0  0  0  0  0  0  0  0  0  0  0  0
    2.4107    1.6209   -1.9305 H   0  0  0  0  0  0  0  0  0  0  0  0
    3.8083    0.6966   -0.1046 H   0  0  0  0  0  0  0  0  0  0  0  0
    2.7651   -0.6496    1.6960 H   0  0  0  0  0  0  0  0  0  0  0  0
    0.3347   -1.0718    1.6833 H   0  0  0  0  0  0  0  0  0  0  0  0
  1  2  1  0
  2  3  1  0
  3  4  2  0
  4  5  2  0
  2  6  1  0
  6  7  2  0
  7  8  1  0
  8  9  2  0
  9 10  1  0
 10 11  2  0
 11  6  1  0
  1 12  1  0
  1 13  1  0
  1 14  1  0
  2 15  1  0
  7 16  1  0
  8 17  1  0
  9 18  1  0
 10 19  1  0
 11 20  1  0
M  END
