
     RDKit          3D

 23 22  0  0  0  0  0  0  0  0999 V2000
    2.2598   -0.6774   -0.5684 C   0  0  0  0  0  0  0  0  0  0  0  0
    1.3670   -0.4517    0.6586 C   0  0  0  0  0  0  0  0  0  0  0  0
    0.2755    0.6481    0.5056 C   0  0  0  0  0  0  0  0  0  0  0  0
    0.7965    1.8975   -0.2249 C   0  0  0  0  0  0  0  0  0  0  0  0
   -1.0706    0.1611   -0.1097 C   0  0  0  0  0  0  0  0  0  0  0  0
   -0.8682   -0.4629   -1.4208 N   0  0  0  0  0  0  0  0  0  0  0  0
   -1.8548   -0.7714    0.8425 C   0  0  0  0  0  0  0  0  0  0  0  0
   -3.1310   -1.0406    0.3270 O   0  0  0  0  0  0  0  0  0  0  0  0
    1.6672   -0.8802   -1.4806 H   0  0  0  0  0  0  0  0  0  0  0  0
    2.9095    0.2049   -0.7464 H   0  0  0  0  0  0  0  0  0  0  0  0
    2.9198   -1.5512   -0.3842 H   0  0  0  0  0  0  0  0  0  0  0  0
    2.0338   -0.1649    1.5012 H   0  0  0  0  0  0  0  0  0  0  0  0
    0.9076   -1.4185    0.9464 H   0  0  0  0  0  0  0  0  0  0  0  0
    0.0406    0.9909    1.5387 H   0  0  0  0  0  0  0  0  0  0  0  0
    0.0606    2.7254   -0.1397 H   0  0  0  0  0  0  0  0  0  0  0  0
    1.7493    2.2409    0.2319 H   0  0  0  0  0  0  0  0  0  0  0  0
    0.9626    1.6877   -1.3028 H   0  0  0  0  0  0  0  0  0  0  0  0
   -1.7063    1.0653   -0.2534 H   0  0  0  0  0  0  0  0  0  0  0  0
   -0.5874   -1.4626   -1.2946 H   0  0  0  0  0  0  0  0  0  0  0  0
   -1.7810   -0.4701   -1.9314 H   0  0  0  0  0  0  0  0  0  0  0  0
   -1.9464   -0.3055    1.8503 H   0  0  0  0  0  0  0  0  0  0  0  0
   -1.3248   -1.7370    0.9706 H   0  0  0  0  0  0  0  0  0  0  0  0
   -3.6792   -0.2279    0.4842 H   0  0  0  0  0  0  0  0  0  0  0  0
  1  2  1  0
  2  3  1  0
  3  4  1  0
  3  5  1  0
  5  6  1  0
  5  7  1  0
  7  8  1  0
  1  9  1  0
  1 10  1  0
  1 11  1  0
  2 12  1  0
  2 13  1  0
  3 14  1  0
  4 15  1  0
  4 16  1  0
  4 17  1  0
  5 18  1  0
  6 19  1  0
  6 20  1  0
  7 21  1  0
  7 22  1  0
  8 23  1  0
M  END
