
     RDKit          3D

 16 16  0  0  0  0  0  0  0  0999 V2000
   -1.5818   -2.1968    0.7950 O   0  0  0  0  0  0  0  0  0  0  0  0
   -1.0749   -0.9712    0.3622 C   0  0  0  0  0  0  0  0  0  0  0  0
    0.3134   -0.7483    0.2719 C   0  0  0  0  0  0  0  0  0  0  0  0
    1.1739   -1.7667    0.6913 O   0  0  0  0  0  0  0  0  0  0  0  0
    0.7919    0.5023   -0.2027 C   0  0  0  0  0  0  0  0  0  0  0  0
   -0.1316    1.5177   -0.5024 C   0  0  0  0  0  0  0  0  0  0  0  0
   -1.5030    1.2901   -0.3876 C   0  0  0  0  0  0  0  0  0  0  0  0
   -1.9727    0.0466    0.0302 C   0  0  0  0  0  0  0  0  0  0  0  0
    2.2229    0.7932   -0.4328 C   0  0  0  0  0  0  0  0  0  0  0  0
    3.0465   -0.1153   -0.7167 O   0  0  0  0  0  0  0  0  0  0  0  0
   -0.9810   -2.9716    1.0491 H   0  0  0  0  0  0  0  0  0  0  0  0
    2.1630   -1.6365    0.8496 H   0  0  0  0  0  0  0  0  0  0  0  0
    0.2097    2.4844   -0.8533 H   0  0  0  0  0  0  0  0  0  0  0  0
   -2.2040    2.0769   -0.6351 H   0  0  0  0  0  0  0  0  0  0  0  0
   -3.0389   -0.1250    0.1071 H   0  0  0  0  0  0  0  0  0  0  0  0
    2.5665    1.8199   -0.4259 H   0  0  0  0  0  0  0  0  0  0  0  0
  1  2  1  0
  2  3  2  0
  3  4  1  0
  3  5  1  0
  5  6  2  0
  6  7  1  0
  7  8  2  0
  5  9  1  0
  9 10  2  0
  8  2  1  0
  1 11  1  0
  4 12  1  0
  6 13  1  0
  7 14  1  0
  8 15  1  0
  9 16  1  0
M  END
