
     RDKit          3D

 21 20  0  0  0  0  0  0  0  0999 V2000
    2.8430   -1.2440   -0.5266 C   0  0  0  0  0  0  0  0  0  0  0  0
    2.4425   -0.6395    0.8141 C   0  0  0  0  0  0  0  0  0  0  0  0
    1.0559   -0.3069    0.8205 O   0  0  0  0  0  0  0  0  0  0  0  0
    0.5291    0.8101    0.1625 C   0  0  0  0  0  0  0  0  0  0  0  0
    1.2851    1.6257   -0.4328 O   0  0  0  0  0  0  0  0  0  0  0  0
   -0.9533    1.0127    0.1309 C   0  0  0  0  0  0  0  0  0  0  0  0
   -1.5703    0.3552   -1.1166 C   0  0  0  0  0  0  0  0  0  0  0  0
   -3.0782    0.6164   -1.1889 C   0  0  0  0  0  0  0  0  0  0  0  0
   -1.3125   -1.0273   -1.1408 O   0  0  0  0  0  0  0  0  0  0  0  0
    2.7082   -0.5026   -1.3416 H   0  0  0  0  0  0  0  0  0  0  0  0
    2.2188   -2.1373   -0.7406 H   0  0  0  0  0  0  0  0  0  0  0  0
    3.9101   -1.5491   -0.4949 H   0  0  0  0  0  0  0  0  0  0  0  0
    2.6302   -1.3877    1.6128 H   0  0  0  0  0  0  0  0  0  0  0  0
    3.0584    0.2600    1.0323 H   0  0  0  0  0  0  0  0  0  0  0  0
   -1.4011    0.5811    1.0524 H   0  0  0  0  0  0  0  0  0  0  0  0
   -1.1707    2.1034    0.1267 H   0  0  0  0  0  0  0  0  0  0  0  0
   -1.1062    0.8077   -2.0205 H   0  0  0  0  0  0  0  0  0  0  0  0
   -3.5902    0.2043   -0.2930 H   0  0  0  0  0  0  0  0  0  0  0  0
   -3.5000    0.1335   -2.0957 H   0  0  0  0  0  0  0  0  0  0  0  0
   -3.2760    1.7079   -1.2473 H   0  0  0  0  0  0  0  0  0  0  0  0
   -1.7228   -1.4238   -0.3278 H   0  0  0  0  0  0  0  0  0  0  0  0
  1  2  1  0
  2  3  1  0
  3  4  1  0
  4  5  2  0
  4  6  1  0
  6  7  1  0
  7  8  1  0
  7  9  1  0
  1 10  1  0
  1 11  1  0
  1 12  1  0
  2 13  1  0
  2 14  1  0
  6 15  1  0
  6 16  1  0
  7 17  1  0
  8 18  1  0
  8 19  1  0
  8 20  1  0
  9 21  1  0
M  END
