
     RDKit          3D

 22 23  0  0  0  0  0  0  0  0999 V2000
    4.9483   -0.4945   -1.1465 Br  0  0  0  0  0  0  0  0  0  0  0  0
    3.8819    0.6548   -0.0082 C   0  0  0  0  0  0  0  0  0  0  0  0
    2.5660    0.9544   -0.6642 C   0  0  0  0  0  0  0  0  0  0  0  0
    2.5371    1.8468   -1.5548 O   0  0  0  0  0  0  0  0  0  0  0  0
    1.3030    0.2592   -0.2932 C   0  0  0  0  0  0  0  0  0  0  0  0
    0.0848    0.9448   -0.4225 C   0  0  0  0  0  0  0  0  0  0  0  0
   -1.1125    0.3170   -0.0720 C   0  0  0  0  0  0  0  0  0  0  0  0
   -2.3463    0.9769   -0.1765 C   0  0  0  0  0  0  0  0  0  0  0  0
   -3.5235    0.3152    0.1878 C   0  0  0  0  0  0  0  0  0  0  0  0
   -3.4736   -1.0020    0.6559 C   0  0  0  0  0  0  0  0  0  0  0  0
   -2.2462   -1.6643    0.7616 C   0  0  0  0  0  0  0  0  0  0  0  0
   -1.0633   -1.0101    0.3992 C   0  0  0  0  0  0  0  0  0  0  0  0
    0.1011   -1.6417    0.4965 O   0  0  0  0  0  0  0  0  0  0  0  0
    1.2608   -1.0764    0.1714 C   0  0  0  0  0  0  0  0  0  0  0  0
    2.3114   -1.7632    0.2657 O   0  0  0  0  0  0  0  0  0  0  0  0
    4.4389    1.6025    0.1490 H   0  0  0  0  0  0  0  0  0  0  0  0
    3.7392    0.1853    0.9870 H   0  0  0  0  0  0  0  0  0  0  0  0
    0.0701    1.9687   -0.7790 H   0  0  0  0  0  0  0  0  0  0  0  0
   -2.3994    1.9973   -0.5368 H   0  0  0  0  0  0  0  0  0  0  0  0
   -4.4756    0.8237    0.1076 H   0  0  0  0  0  0  0  0  0  0  0  0
   -4.3871   -1.5101    0.9366 H   0  0  0  0  0  0  0  0  0  0  0  0
   -2.2150   -2.6842    1.1238 H   0  0  0  0  0  0  0  0  0  0  0  0
  1  2  1  0
  2  3  1  0
  3  4  2  0
  3  5  1  0
  5  6  2  0
  6  7  1  0
  7  8  2  0
  8  9  1  0
  9 10  2  0
 10 11  1  0
 11 12  2  0
 12 13  1  0
 13 14  1  0
 14 15  2  0
 14  5  1  0
 12  7  1  0
  2 16  1  0
  2 17  1  0
  6 18  1  0
  8 19  1  0
  9 20  1  0
 10 21  1  0
 11 22  1  0
M  END
