
     RDKit          3D

 23 24  0  0  0  0  0  0  0  0999 V2000
   -4.6631    0.8247    0.1608 O   0  0  0  0  0  0  0  0  0  0  0  0
   -3.2917    0.5811    0.1806 C   0  0  0  0  0  0  0  0  0  0  0  0
   -2.7647   -0.4628   -0.5850 C   0  0  0  0  0  0  0  0  0  0  0  0
   -1.3904   -0.7196   -0.5749 C   0  0  0  0  0  0  0  0  0  0  0  0
   -0.5225    0.0687    0.2037 C   0  0  0  0  0  0  0  0  0  0  0  0
   -1.0619    1.1181    0.9711 C   0  0  0  0  0  0  0  0  0  0  0  0
   -2.4368    1.3711    0.9592 C   0  0  0  0  0  0  0  0  0  0  0  0
    0.9380   -0.2022    0.2153 C   0  0  0  0  0  0  0  0  0  0  0  0
    1.8629    0.8590    0.2044 C   0  0  0  0  0  0  0  0  0  0  0  0
    3.2371    0.6016    0.2148 C   0  0  0  0  0  0  0  0  0  0  0  0
    3.7045   -0.7153    0.2373 C   0  0  0  0  0  0  0  0  0  0  0  0
    5.5823   -1.0635    0.2522 Br  0  0  0  0  0  0  0  0  0  0  0  0
    2.7957   -1.7769    0.2488 C   0  0  0  0  0  0  0  0  0  0  0  0
    1.4206   -1.5244    0.2374 C   0  0  0  0  0  0  0  0  0  0  0  0
   -5.0757    1.5737    0.7045 H   0  0  0  0  0  0  0  0  0  0  0  0
   -3.4207   -1.0741   -1.1916 H   0  0  0  0  0  0  0  0  0  0  0  0
   -1.0047   -1.5230   -1.1898 H   0  0  0  0  0  0  0  0  0  0  0  0
   -0.4232    1.7315    1.5942 H   0  0  0  0  0  0  0  0  0  0  0  0
   -2.8368    2.1794    1.5582 H   0  0  0  0  0  0  0  0  0  0  0  0
    1.5242    1.8868    0.1696 H   0  0  0  0  0  0  0  0  0  0  0  0
    3.9378    1.4267    0.2020 H   0  0  0  0  0  0  0  0  0  0  0  0
    3.1536   -2.7983    0.2701 H   0  0  0  0  0  0  0  0  0  0  0  0
    0.7354   -2.3623    0.2640 H   0  0  0  0  0  0  0  0  0  0  0  0
  1  2  1  0
  2  3  2  0
  3  4  1  0
  4  5  2  0
  5  6  1  0
  6  7  2  0
  5  8  1  0
  8  9  2  0
  9 10  1  0
 10 11  2  0
 11 12  1  0
 11 13  1  0
 13 14  2  0
  7  2  1  0
 14  8  1  0
  1 15  1  0
  3 16  1  0
  4 17  1  0
  6 18  1  0
  7 19  1  0
  9 20  1  0
 10 21  1  0
 13 22  1  0
 14 23  1  0
M  END
