
     RDKit          3D

 26 25  0  0  0  0  0  0  0  0999 V2000
    3.1481    1.8493    0.5055 C   0  0  0  0  0  0  0  0  0  0  0  0
    2.9187    0.4135    0.0403 C   0  0  0  0  0  0  0  0  0  0  0  0
    1.5290    0.2491   -0.5862 C   0  0  0  0  0  0  0  0  0  0  0  0
    1.3000   -1.2002   -1.0441 C   0  0  0  0  0  0  0  0  0  0  0  0
   -0.0693   -1.3890   -1.7089 C   0  0  0  0  0  0  0  0  0  0  0  0
   -1.1603   -1.2424   -0.7372 C   0  0  0  0  0  0  0  0  0  0  0  0
   -2.0512   -1.1137    0.0646 C   0  0  0  0  0  0  0  0  0  0  0  0
   -3.1310   -0.9475    1.0441 C   0  0  0  0  0  0  0  0  0  0  0  0
   -3.7400    0.4534    0.9578 C   0  0  0  0  0  0  0  0  0  0  0  0
   -2.8093    1.4271    1.3540 O   0  0  0  0  0  0  0  0  0  0  0  0
    3.0772    2.5499   -0.3543 H   0  0  0  0  0  0  0  0  0  0  0  0
    2.3952    2.1318    1.2720 H   0  0  0  0  0  0  0  0  0  0  0  0
    4.1607    1.9375    0.9534 H   0  0  0  0  0  0  0  0  0  0  0  0
    3.6998    0.1476   -0.7049 H   0  0  0  0  0  0  0  0  0  0  0  0
    3.0191   -0.2675    0.9140 H   0  0  0  0  0  0  0  0  0  0  0  0
    1.4365    0.9306   -1.4610 H   0  0  0  0  0  0  0  0  0  0  0  0
    0.7567    0.5302    0.1631 H   0  0  0  0  0  0  0  0  0  0  0  0
    2.0853   -1.4744   -1.7823 H   0  0  0  0  0  0  0  0  0  0  0  0
    1.3931   -1.8920   -0.1770 H   0  0  0  0  0  0  0  0  0  0  0  0
   -0.2054   -0.6516   -2.5290 H   0  0  0  0  0  0  0  0  0  0  0  0
   -0.1245   -2.4086   -2.1466 H   0  0  0  0  0  0  0  0  0  0  0  0
   -3.9177   -1.7047    0.8390 H   0  0  0  0  0  0  0  0  0  0  0  0
   -2.7286   -1.1227    2.0651 H   0  0  0  0  0  0  0  0  0  0  0  0
   -4.1154    0.6553   -0.0730 H   0  0  0  0  0  0  0  0  0  0  0  0
   -4.6116    0.5032    1.6443 H   0  0  0  0  0  0  0  0  0  0  0  0
   -2.2550    1.6361    0.5570 H   0  0  0  0  0  0  0  0  0  0  0  0
  1  2  1  0
  2  3  1  0
  3  4  1  0
  4  5  1  0
  5  6  1  0
  6  7  3  0
  7  8  1  0
  8  9  1  0
  9 10  1  0
  1 11  1  0
  1 12  1  0
  1 13  1  0
  2 14  1  0
  2 15  1  0
  3 16  1  0
  3 17  1  0
  4 18  1  0
  4 19  1  0
  5 20  1  0
  5 21  1  0
  8 22  1  0
  8 23  1  0
  9 24  1  0
  9 25  1  0
 10 26  1  0
M  END
