
     RDKit          3D

 29 28  0  0  0  0  0  0  0  0999 V2000
    4.1994    0.3651    0.7415 C   0  0  0  0  0  0  0  0  0  0  0  0
    3.3008    1.4435    0.1475 C   0  0  0  0  0  0  0  0  0  0  0  0
    1.9716    0.9545   -0.0198 O   0  0  0  0  0  0  0  0  0  0  0  0
    1.5915    0.0824   -1.0479 C   0  0  0  0  0  0  0  0  0  0  0  0
    2.4284   -0.2675   -1.9239 O   0  0  0  0  0  0  0  0  0  0  0  0
    0.2127   -0.4368   -1.1371 C   0  0  0  0  0  0  0  0  0  0  0  0
   -0.7602   -0.1441   -0.2536 C   0  0  0  0  0  0  0  0  0  0  0  0
   -2.0649   -0.6629   -0.3759 O   0  0  0  0  0  0  0  0  0  0  0  0
   -2.5080   -1.6342   -1.3254 C   0  0  0  0  0  0  0  0  0  0  0  0
   -2.0171   -3.0271   -0.9452 C   0  0  0  0  0  0  0  0  0  0  0  0
   -0.4812    0.7059    0.8233 O   0  0  0  0  0  0  0  0  0  0  0  0
   -1.4620    1.1157    1.7730 C   0  0  0  0  0  0  0  0  0  0  0  0
   -2.3717    2.1847    1.1789 C   0  0  0  0  0  0  0  0  0  0  0  0
    3.7812    0.0144    1.7087 H   0  0  0  0  0  0  0  0  0  0  0  0
    4.2820   -0.4965    0.0467 H   0  0  0  0  0  0  0  0  0  0  0  0
    5.2142    0.7799    0.9171 H   0  0  0  0  0  0  0  0  0  0  0  0
    3.7099    1.7961   -0.8242 H   0  0  0  0  0  0  0  0  0  0  0  0
    3.2738    2.3079    0.8438 H   0  0  0  0  0  0  0  0  0  0  0  0
    0.0056   -1.0855   -1.9755 H   0  0  0  0  0  0  0  0  0  0  0  0
   -3.6183   -1.6434   -1.3183 H   0  0  0  0  0  0  0  0  0  0  0  0
   -2.1898   -1.3624   -2.3539 H   0  0  0  0  0  0  0  0  0  0  0  0
   -0.9090   -3.0725   -0.9588 H   0  0  0  0  0  0  0  0  0  0  0  0
   -2.3763   -3.2886    0.0726 H   0  0  0  0  0  0  0  0  0  0  0  0
   -2.4126   -3.7716   -1.6677 H   0  0  0  0  0  0  0  0  0  0  0  0
   -2.0606    0.2433    2.1143 H   0  0  0  0  0  0  0  0  0  0  0  0
   -0.9413    1.5420    2.6561 H   0  0  0  0  0  0  0  0  0  0  0  0
   -3.0929    2.5309    1.9488 H   0  0  0  0  0  0  0  0  0  0  0  0
   -2.9395    1.7763    0.3171 H   0  0  0  0  0  0  0  0  0  0  0  0
   -1.7655    3.0505    0.8380 H   0  0  0  0  0  0  0  0  0  0  0  0
  1  2  1  0
  2  3  1  0
  3  4  1  0
  4  5  2  0
  4  6  1  0
  6  7  2  3
  7  8  1  0
  8  9  1  0
  9 10  1  0
  7 11  1  0
 11 12  1  0
 12 13  1  0
  1 14  1  0
  1 15  1  0
  1 16  1  0
  2 17  1  0
  2 18  1  0
  6 19  1  0
  9 20  1  0
  9 21  1  0
 10 22  1  0
 10 23  1  0
 10 24  1  0
 12 25  1  0
 12 26  1  0
 13 27  1  0
 13 28  1  0
 13 29  1  0
M  END
