
     RDKit          3D

 16 16  0  0  0  0  0  0  0  0999 V2000
   -2.8237    0.1369    0.0884 C   0  0  0  0  0  0  0  0  0  0  0  0
   -1.7482   -0.7650   -0.1510 O   0  0  0  0  0  0  0  0  0  0  0  0
   -0.3915   -0.4131   -0.0924 C   0  0  0  0  0  0  0  0  0  0  0  0
    0.0379    0.8932    0.2155 C   0  0  0  0  0  0  0  0  0  0  0  0
    1.4043    1.1930    0.2614 C   0  0  0  0  0  0  0  0  0  0  0  0
    2.3492    0.1956    0.0014 C   0  0  0  0  0  0  0  0  0  0  0  0
    1.9299   -1.1026   -0.3047 C   0  0  0  0  0  0  0  0  0  0  0  0
    0.5643   -1.4038   -0.3509 C   0  0  0  0  0  0  0  0  0  0  0  0
    3.1158   -2.3534   -0.6308 Cl  0  0  0  0  0  0  0  0  0  0  0  0
    1.9327    2.8212    0.6453 Cl  0  0  0  0  0  0  0  0  0  0  0  0
   -2.7964    0.9677   -0.6480 H   0  0  0  0  0  0  0  0  0  0  0  0
   -2.7618    0.5393    1.1216 H   0  0  0  0  0  0  0  0  0  0  0  0
   -3.7842   -0.4062   -0.0243 H   0  0  0  0  0  0  0  0  0  0  0  0
   -0.6769    1.6788    0.4197 H   0  0  0  0  0  0  0  0  0  0  0  0
    3.4060    0.4286    0.0372 H   0  0  0  0  0  0  0  0  0  0  0  0
    0.2427   -2.4102   -0.5883 H   0  0  0  0  0  0  0  0  0  0  0  0
  1  2  1  0
  2  3  1  0
  3  4  2  0
  4  5  1  0
  5  6  2  0
  6  7  1  0
  7  8  2  0
  7  9  1  0
  5 10  1  0
  8  3  1  0
  1 11  1  0
  1 12  1  0
  1 13  1  0
  4 14  1  0
  6 15  1  0
  8 16  1  0
M  END
