
     RDKit          3D

 23 24  0  0  0  0  0  0  0  0999 V2000
   -0.8506   -2.7488   -0.7096 C   0  0  0  0  0  0  0  0  0  0  0  0
   -0.0653   -1.5786   -0.1700 C   0  0  0  0  0  0  0  0  0  0  0  0
    1.1340   -1.8326    0.5061 C   0  0  0  0  0  0  0  0  0  0  0  0
    1.9047   -0.7904    1.0091 C   0  0  0  0  0  0  0  0  0  0  0  0
    1.5093    0.5429    0.8510 C   0  0  0  0  0  0  0  0  0  0  0  0
    2.4498    1.5765    1.3409 C   0  0  0  0  0  0  0  0  0  0  0  0
    2.6007    2.6718    0.7387 O   0  0  0  0  0  0  0  0  0  0  0  0
    0.2663    0.8306    0.2209 C   0  0  0  0  0  0  0  0  0  0  0  0
   -0.5152   -0.2405   -0.3108 C   0  0  0  0  0  0  0  0  0  0  0  0
   -1.7362    0.0546   -0.9569 C   0  0  0  0  0  0  0  0  0  0  0  0
   -2.1934    1.3673   -1.0528 C   0  0  0  0  0  0  0  0  0  0  0  0
   -1.4561    2.4068   -0.4971 C   0  0  0  0  0  0  0  0  0  0  0  0
   -0.2439    2.1464    0.1409 C   0  0  0  0  0  0  0  0  0  0  0  0
   -0.3384   -3.7156   -0.5169 H   0  0  0  0  0  0  0  0  0  0  0  0
   -0.9742   -2.6452   -1.8081 H   0  0  0  0  0  0  0  0  0  0  0  0
   -1.8479   -2.7893   -0.2233 H   0  0  0  0  0  0  0  0  0  0  0  0
    1.4878   -2.8481    0.6365 H   0  0  0  0  0  0  0  0  0  0  0  0
    2.8399   -1.0289    1.5025 H   0  0  0  0  0  0  0  0  0  0  0  0
    3.0853    1.3597    2.1903 H   0  0  0  0  0  0  0  0  0  0  0  0
   -2.3542   -0.7226   -1.3854 H   0  0  0  0  0  0  0  0  0  0  0  0
   -3.1338    1.5773   -1.5463 H   0  0  0  0  0  0  0  0  0  0  0  0
   -1.8301    3.4212   -0.5527 H   0  0  0  0  0  0  0  0  0  0  0  0
    0.2615    2.9855    0.5929 H   0  0  0  0  0  0  0  0  0  0  0  0
  1  2  1  0
  2  3  2  0
  3  4  1  0
  4  5  2  0
  5  6  1  0
  6  7  2  0
  5  8  1  0
  8  9  2  0
  9 10  1  0
 10 11  2  0
 11 12  1  0
 12 13  2  0
  9  2  1  0
 13  8  1  0
  1 14  1  0
  1 15  1  0
  1 16  1  0
  3 17  1  0
  4 18  1  0
  6 19  1  0
 10 20  1  0
 11 21  1  0
 12 22  1  0
 13 23  1  0
M  END
