
     RDKit          3D

 16 15  0  0  0  0  0  0  0  0999 V2000
   -3.2342    0.8341    0.6055 C   0  0  0  0  0  0  0  0  0  0  0  0
   -2.1096   -0.0071    0.1961 C   0  0  0  0  0  0  0  0  0  0  0  0
   -1.1822   -0.6995   -0.1407 C   0  0  0  0  0  0  0  0  0  0  0  0
   -0.0518   -1.5403   -0.5490 C   0  0  0  0  0  0  0  0  0  0  0  0
    1.0944   -0.7350   -0.8130 O   0  0  0  0  0  0  0  0  0  0  0  0
    1.8341   -0.0993    0.1910 C   0  0  0  0  0  0  0  0  0  0  0  0
    2.9944    0.7588   -0.1832 C   0  0  0  0  0  0  0  0  0  0  0  0
    1.5071   -0.2121    1.4037 O   0  0  0  0  0  0  0  0  0  0  0  0
   -3.7914    1.1699   -0.2931 H   0  0  0  0  0  0  0  0  0  0  0  0
   -2.8530    1.7188    1.1560 H   0  0  0  0  0  0  0  0  0  0  0  0
   -3.9110    0.2521    1.2643 H   0  0  0  0  0  0  0  0  0  0  0  0
   -0.3303   -2.0837   -1.4752 H   0  0  0  0  0  0  0  0  0  0  0  0
    0.1725   -2.2850    0.2441 H   0  0  0  0  0  0  0  0  0  0  0  0
    2.6710    1.8196   -0.2259 H   0  0  0  0  0  0  0  0  0  0  0  0
    3.3848    0.4566   -1.1775 H   0  0  0  0  0  0  0  0  0  0  0  0
    3.8053    0.6521    0.5679 H   0  0  0  0  0  0  0  0  0  0  0  0
  1  2  1  0
  2  3  3  0
  3  4  1  0
  4  5  1  0
  5  6  1  0
  6  7  1  0
  6  8  2  0
  1  9  1  0
  1 10  1  0
  1 11  1  0
  4 12  1  0
  4 13  1  0
  7 14  1  0
  7 15  1  0
  7 16  1  0
M  END
