
     RDKit          3D

 21 22  0  0  0  0  0  0  0  0999 V2000
   -1.2646   -1.9224    0.4655 N   0  0  0  0  0  0  0  0  0  0  0  0
   -0.8292   -0.5896    0.1533 C   0  0  0  0  0  0  0  0  0  0  0  0
   -1.7899    0.4160   -0.1219 C   0  0  0  0  0  0  0  0  0  0  0  0
   -1.3641    1.7012   -0.4925 C   0  0  0  0  0  0  0  0  0  0  0  0
   -0.0092    2.0116   -0.5634 C   0  0  0  0  0  0  0  0  0  0  0  0
    0.9498    1.0406   -0.2806 C   0  0  0  0  0  0  0  0  0  0  0  0
    0.5538   -0.2737    0.0721 C   0  0  0  0  0  0  0  0  0  0  0  0
    1.5688   -1.2266    0.2976 C   0  0  0  0  0  0  0  0  0  0  0  0
    2.9125   -0.8604    0.2049 C   0  0  0  0  0  0  0  0  0  0  0  0
    3.2468    0.4514   -0.1239 C   0  0  0  0  0  0  0  0  0  0  0  0
    2.2693    1.3622   -0.3630 N   0  0  0  0  0  0  0  0  0  0  0  0
   -3.1981    0.1600    0.0160 N   0  0  0  0  0  4  0  0  0  0  0  0
   -3.6693   -0.5689    1.0837 O   0  0  0  0  0  1  0  0  0  0  0  0
   -4.0177    0.7506   -0.7177 O   0  0  0  0  0  0  0  0  0  0  0  0
   -2.1677   -2.2919    0.0950 H   0  0  0  0  0  0  0  0  0  0  0  0
   -0.7204   -2.5488    1.0965 H   0  0  0  0  0  0  0  0  0  0  0  0
   -2.0891    2.4783   -0.6999 H   0  0  0  0  0  0  0  0  0  0  0  0
    0.2947    3.0143   -0.8385 H   0  0  0  0  0  0  0  0  0  0  0  0
    1.3478   -2.2565    0.5333 H   0  0  0  0  0  0  0  0  0  0  0  0
    3.6906   -1.5917    0.3824 H   0  0  0  0  0  0  0  0  0  0  0  0
    4.2854    0.7445   -0.1991 H   0  0  0  0  0  0  0  0  0  0  0  0
  1  2  1  0
  2  3  2  0
  3  4  1  0
  4  5  2  0
  5  6  1  0
  6  7  2  0
  7  8  1  0
  8  9  2  0
  9 10  1  0
 10 11  2  0
  3 12  1  0
 12 13  1  0
 12 14  2  0
  7  2  1  0
 11  6  1  0
  1 15  1  0
  1 16  1  0
  4 17  1  0
  5 18  1  0
  8 19  1  0
  9 20  1  0
 10 21  1  0
M  CHG  2  12   1  13  -1
M  END
