
     RDKit          3D

 24 24  0  0  0  0  0  0  0  0999 V2000
   -3.6925   -0.3827   -0.3266 C   0  0  0  0  0  0  0  0  0  0  0  0
   -2.4481   -1.1154    0.0745 C   0  0  0  0  0  0  0  0  0  0  0  0
   -2.5478   -2.3324    0.3897 O   0  0  0  0  0  0  0  0  0  0  0  0
   -1.1132   -0.4595    0.1111 C   0  0  0  0  0  0  0  0  0  0  0  0
    0.0323   -1.2436   -0.1123 C   0  0  0  0  0  0  0  0  0  0  0  0
    1.3179   -0.6784   -0.0981 C   0  0  0  0  0  0  0  0  0  0  0  0
    1.4642    0.7078    0.1301 C   0  0  0  0  0  0  0  0  0  0  0  0
    2.8225    1.3594    0.1491 C   0  0  0  0  0  0  0  0  0  0  0  0
    0.3247    1.4878    0.3762 C   0  0  0  0  0  0  0  0  0  0  0  0
   -0.9550    0.9179    0.3758 C   0  0  0  0  0  0  0  0  0  0  0  0
   -2.0583    1.7218    0.6608 O   0  0  0  0  0  0  0  0  0  0  0  0
    2.5134   -1.5577   -0.3590 C   0  0  0  0  0  0  0  0  0  0  0  0
   -3.4652    0.3637   -1.1166 H   0  0  0  0  0  0  0  0  0  0  0  0
   -4.1324    0.1234    0.5577 H   0  0  0  0  0  0  0  0  0  0  0  0
   -4.4402   -1.0960   -0.7337 H   0  0  0  0  0  0  0  0  0  0  0  0
   -0.0778   -2.3029   -0.3131 H   0  0  0  0  0  0  0  0  0  0  0  0
    2.7456    2.4657    0.2148 H   0  0  0  0  0  0  0  0  0  0  0  0
    3.3981    0.9980    1.0268 H   0  0  0  0  0  0  0  0  0  0  0  0
    3.3766    1.1148   -0.7811 H   0  0  0  0  0  0  0  0  0  0  0  0
    0.4287    2.5472    0.5775 H   0  0  0  0  0  0  0  0  0  0  0  0
   -1.9618    2.7109    0.8592 H   0  0  0  0  0  0  0  0  0  0  0  0
    2.9697   -1.2882   -1.3343 H   0  0  0  0  0  0  0  0  0  0  0  0
    3.2652   -1.4295    0.4475 H   0  0  0  0  0  0  0  0  0  0  0  0
    2.2335   -2.6323   -0.3910 H   0  0  0  0  0  0  0  0  0  0  0  0
  1  2  1  0
  2  3  2  0
  2  4  1  0
  4  5  2  0
  5  6  1  0
  6  7  2  0
  7  8  1  0
  7  9  1  0
  9 10  2  0
 10 11  1  0
  6 12  1  0
 10  4  1  0
  1 13  1  0
  1 14  1  0
  1 15  1  0
  5 16  1  0
  8 17  1  0
  8 18  1  0
  8 19  1  0
  9 20  1  0
 11 21  1  0
 12 22  1  0
 12 23  1  0
 12 24  1  0
M  END
