
     RDKit          3D

 17 16  0  0  0  0  0  0  0  0999 V2000
    2.4687    0.0327    0.2754 C   0  0  0  0  0  0  0  0  0  0  0  0
    1.3369    0.8692    0.3720 O   0  0  0  0  0  0  0  0  0  0  0  0
    0.3940    0.5470   -0.6350 C   0  0  0  0  0  0  0  0  0  0  0  0
   -0.6894   -0.3996   -0.0897 C   0  0  0  0  0  0  0  0  0  0  0  0
   -1.4553    0.2390    1.0793 C   0  0  0  0  0  0  0  0  0  0  0  0
   -1.6063   -0.7702   -1.1699 N   0  0  0  0  0  0  0  0  0  0  0  0
    2.1894   -1.0426    0.3285 H   0  0  0  0  0  0  0  0  0  0  0  0
    3.0338    0.2410   -0.6598 H   0  0  0  0  0  0  0  0  0  0  0  0
    3.1417    0.2478    1.1305 H   0  0  0  0  0  0  0  0  0  0  0  0
   -0.0878    1.4920   -0.9666 H   0  0  0  0  0  0  0  0  0  0  0  0
    0.8580    0.1053   -1.5499 H   0  0  0  0  0  0  0  0  0  0  0  0
   -0.1966   -1.3249    0.2813 H   0  0  0  0  0  0  0  0  0  0  0  0
   -0.7640    0.4567    1.9208 H   0  0  0  0  0  0  0  0  0  0  0  0
   -1.9425    1.1850    0.7593 H   0  0  0  0  0  0  0  0  0  0  0  0
   -2.2368   -0.4586    1.4480 H   0  0  0  0  0  0  0  0  0  0  0  0
   -2.2777   -1.4871   -0.8098 H   0  0  0  0  0  0  0  0  0  0  0  0
   -2.1660    0.0675   -1.4535 H   0  0  0  0  0  0  0  0  0  0  0  0
  1  2  1  0
  2  3  1  0
  3  4  1  0
  4  5  1  0
  4  6  1  0
  1  7  1  0
  1  8  1  0
  1  9  1  0
  3 10  1  0
  3 11  1  0
  4 12  1  0
  5 13  1  0
  5 14  1  0
  5 15  1  0
  6 16  1  0
  6 17  1  0
M  END
