
     RDKit          3D

 30 30  0  0  0  0  0  0  0  0999 V2000
    3.7455   -1.2270   -0.6473 C   0  0  0  0  0  0  0  0  0  0  0  0
    3.9416    0.0286    0.2025 C   0  0  0  0  0  0  0  0  0  0  0  0
    3.2948    1.2765   -0.4337 C   0  0  0  0  0  0  0  0  0  0  0  0
    1.9479    1.6638    0.1999 C   0  0  0  0  0  0  0  0  0  0  0  0
    0.8482    0.6338   -0.0566 C   0  0  0  0  0  0  0  0  0  0  0  0
   -0.4007    1.1560    0.3892 O   0  0  0  0  0  0  0  0  0  0  0  0
   -1.6208    0.4690    0.3075 C   0  0  0  0  0  0  0  0  0  0  0  0
   -1.7234   -0.8274   -0.2337 C   0  0  0  0  0  0  0  0  0  0  0  0
   -2.9641   -1.4700   -0.2924 C   0  0  0  0  0  0  0  0  0  0  0  0
   -4.1151   -0.8298    0.1865 C   0  0  0  0  0  0  0  0  0  0  0  0
   -5.3833   -1.4879    0.1259 N   0  0  0  0  0  0  0  0  0  0  0  0
   -4.0144    0.4599    0.7251 C   0  0  0  0  0  0  0  0  0  0  0  0
   -2.7744    1.1030    0.7842 C   0  0  0  0  0  0  0  0  0  0  0  0
    2.6689   -1.4492   -0.7903 H   0  0  0  0  0  0  0  0  0  0  0  0
    4.2198   -2.0942   -0.1415 H   0  0  0  0  0  0  0  0  0  0  0  0
    4.2230   -1.0952   -1.6415 H   0  0  0  0  0  0  0  0  0  0  0  0
    5.0355    0.2020    0.3020 H   0  0  0  0  0  0  0  0  0  0  0  0
    3.5464   -0.1494    1.2263 H   0  0  0  0  0  0  0  0  0  0  0  0
    3.1756    1.1538   -1.5329 H   0  0  0  0  0  0  0  0  0  0  0  0
    3.9857    2.1356   -0.2877 H   0  0  0  0  0  0  0  0  0  0  0  0
    2.0729    1.8103    1.2951 H   0  0  0  0  0  0  0  0  0  0  0  0
    1.6286    2.6367   -0.2336 H   0  0  0  0  0  0  0  0  0  0  0  0
    0.7888    0.4132   -1.1449 H   0  0  0  0  0  0  0  0  0  0  0  0
    1.0732   -0.2972    0.5059 H   0  0  0  0  0  0  0  0  0  0  0  0
   -0.8527   -1.3463   -0.6108 H   0  0  0  0  0  0  0  0  0  0  0  0
   -3.0283   -2.4666   -0.7110 H   0  0  0  0  0  0  0  0  0  0  0  0
   -6.2465   -1.0188    0.4803 H   0  0  0  0  0  0  0  0  0  0  0  0
   -5.4682   -2.4491   -0.2738 H   0  0  0  0  0  0  0  0  0  0  0  0
   -4.8955    0.9664    1.0988 H   0  0  0  0  0  0  0  0  0  0  0  0
   -2.7090    2.0994    1.2026 H   0  0  0  0  0  0  0  0  0  0  0  0
  1  2  1  0
  2  3  1  0
  3  4  1  0
  4  5  1  0
  5  6  1  0
  6  7  1  0
  7  8  2  0
  8  9  1  0
  9 10  2  0
 10 11  1  0
 10 12  1  0
 12 13  2  0
 13  7  1  0
  1 14  1  0
  1 15  1  0
  1 16  1  0
  2 17  1  0
  2 18  1  0
  3 19  1  0
  3 20  1  0
  4 21  1  0
  4 22  1  0
  5 23  1  0
  5 24  1  0
  8 25  1  0
  9 26  1  0
 11 27  1  0
 11 28  1  0
 12 29  1  0
 13 30  1  0
M  END
