
     RDKit          3D

 18 17  0  0  0  0  0  0  0  0999 V2000
   -0.5573   -0.4755    1.3847 C   0  0  0  0  0  0  0  0  0  0  0  0
   -0.1538    0.0118   -0.0241 C   0  0  0  0  0  0  0  0  0  0  0  0
   -0.2326   -1.1623   -1.0243 C   0  0  0  0  0  0  0  0  0  0  0  0
    1.2962    0.5573    0.0159 C   0  0  0  0  0  0  0  0  0  0  0  0
    2.1984   -0.4375    0.4211 O   0  0  0  0  0  0  0  0  0  0  0  0
   -1.0900    1.1626   -0.4784 C   0  0  0  0  0  0  0  0  0  0  0  0
   -2.9719    0.6695   -0.5915 Br  0  0  0  0  0  0  0  0  0  0  0  0
    0.1305   -1.2725    1.7398 H   0  0  0  0  0  0  0  0  0  0  0  0
   -0.5246    0.3636    2.1126 H   0  0  0  0  0  0  0  0  0  0  0  0
   -1.5837   -0.8986    1.3839 H   0  0  0  0  0  0  0  0  0  0  0  0
    0.4639   -1.9775   -0.7331 H   0  0  0  0  0  0  0  0  0  0  0  0
    0.0363   -0.8224   -2.0477 H   0  0  0  0  0  0  0  0  0  0  0  0
   -1.2548   -1.5941   -1.0559 H   0  0  0  0  0  0  0  0  0  0  0  0
    1.5872    0.9263   -0.9943 H   0  0  0  0  0  0  0  0  0  0  0  0
    1.3556    1.4159    0.7233 H   0  0  0  0  0  0  0  0  0  0  0  0
    3.0957   -0.0135    0.4212 H   0  0  0  0  0  0  0  0  0  0  0  0
   -0.7824    1.5298   -1.4814 H   0  0  0  0  0  0  0  0  0  0  0  0
   -1.0129    2.0172    0.2282 H   0  0  0  0  0  0  0  0  0  0  0  0
  1  2  1  0
  2  3  1  0
  2  4  1  0
  4  5  1  0
  2  6  1  0
  6  7  1  0
  1  8  1  0
  1  9  1  0
  1 10  1  0
  3 11  1  0
  3 12  1  0
  3 13  1  0
  4 14  1  0
  4 15  1  0
  5 16  1  0
  6 17  1  0
  6 18  1  0
M  END
