
     RDKit          3D

 21 21  0  0  0  0  0  0  0  0999 V2000
    3.9364   -0.5947    0.5846 O   0  0  0  0  0  0  0  0  0  0  0  0
    2.6805    0.0202    0.6793 C   0  0  0  0  0  0  0  0  0  0  0  0
    2.1409    0.3399   -0.7159 C   0  0  0  0  0  0  0  0  0  0  0  0
    0.8627    0.9705   -0.6309 O   0  0  0  0  0  0  0  0  0  0  0  0
   -0.3508    0.3239   -0.3429 C   0  0  0  0  0  0  0  0  0  0  0  0
   -1.4989    1.1128   -0.1925 C   0  0  0  0  0  0  0  0  0  0  0  0
   -2.7383    0.5230    0.0938 C   0  0  0  0  0  0  0  0  0  0  0  0
   -2.8318   -0.8652    0.2285 C   0  0  0  0  0  0  0  0  0  0  0  0
   -1.6946   -1.6618    0.0767 C   0  0  0  0  0  0  0  0  0  0  0  0
   -0.4581   -1.0752   -0.2090 C   0  0  0  0  0  0  0  0  0  0  0  0
   -3.8798    1.3069    0.2458 O   0  0  0  0  0  0  0  0  0  0  0  0
    4.5901    0.1239    0.3792 H   0  0  0  0  0  0  0  0  0  0  0  0
    2.7495    0.9540    1.2826 H   0  0  0  0  0  0  0  0  0  0  0  0
    1.9894   -0.6707    1.2040 H   0  0  0  0  0  0  0  0  0  0  0  0
    2.0898   -0.5734   -1.3459 H   0  0  0  0  0  0  0  0  0  0  0  0
    2.8406    1.0449   -1.2127 H   0  0  0  0  0  0  0  0  0  0  0  0
   -1.4254    2.1882   -0.2970 H   0  0  0  0  0  0  0  0  0  0  0  0
   -3.7861   -1.3263    0.4494 H   0  0  0  0  0  0  0  0  0  0  0  0
   -1.7716   -2.7366    0.1794 H   0  0  0  0  0  0  0  0  0  0  0  0
    0.4011   -1.7199   -0.3250 H   0  0  0  0  0  0  0  0  0  0  0  0
   -3.8456    2.3155    0.1544 H   0  0  0  0  0  0  0  0  0  0  0  0
  1  2  1  0
  2  3  1  0
  3  4  1  0
  4  5  1  0
  5  6  2  0
  6  7  1  0
  7  8  2  0
  8  9  1  0
  9 10  2  0
  7 11  1  0
 10  5  1  0
  1 12  1  0
  2 13  1  0
  2 14  1  0
  3 15  1  0
  3 16  1  0
  6 17  1  0
  8 18  1  0
  9 19  1  0
 10 20  1  0
 11 21  1  0
M  END
