
     RDKit          3D

 10 10  0  0  0  0  0  0  0  0999 V2000
    3.2304   -0.9876   -0.4005 Cl  0  0  0  0  0  0  0  0  0  0  0  0
    1.5529   -0.5236   -0.2088 C   0  0  0  0  0  0  0  0  0  0  0  0
    1.1007    0.7189    0.2137 C   0  0  0  0  0  0  0  0  0  0  0  0
   -0.2953    0.8032    0.2731 C   0  0  0  0  0  0  0  0  0  0  0  0
   -0.9244   -0.3755   -0.1037 C   0  0  0  0  0  0  0  0  0  0  0  0
    0.2346   -1.5230   -0.5106 S   0  0  0  0  0  0  0  0  0  0  0  0
   -2.3441   -0.5878   -0.1421 C   0  0  0  0  0  0  0  0  0  0  0  0
   -3.4882   -0.7589   -0.1731 N   0  0  0  0  0  0  0  0  0  0  0  0
    1.7583    1.5386    0.4708 H   0  0  0  0  0  0  0  0  0  0  0  0
   -0.8248    1.6955    0.5811 H   0  0  0  0  0  0  0  0  0  0  0  0
  1  2  1  0
  2  3  2  0
  3  4  1  0
  4  5  2  0
  5  6  1  0
  5  7  1  0
  7  8  3  0
  6  2  1  0
  3  9  1  0
  4 10  1  0
M  END
