
     RDKit          3D

 21 21  0  0  0  0  0  0  0  0999 V2000
   -3.6099    0.4497   -0.1083 C   0  0  0  0  0  0  0  0  0  0  0  0
   -2.8691   -0.8036   -0.5600 C   0  0  0  0  0  0  0  0  0  0  0  0
   -1.4676   -0.5548   -0.6500 O   0  0  0  0  0  0  0  0  0  0  0  0
   -0.6247   -0.4659    0.4655 C   0  0  0  0  0  0  0  0  0  0  0  0
   -1.0850   -0.6628    1.6242 O   0  0  0  0  0  0  0  0  0  0  0  0
    0.8083   -0.1478    0.2809 C   0  0  0  0  0  0  0  0  0  0  0  0
    1.6737   -0.0602    1.3876 C   0  0  0  0  0  0  0  0  0  0  0  0
    3.0269    0.2417    1.2057 C   0  0  0  0  0  0  0  0  0  0  0  0
    3.5309    0.4593   -0.0795 C   0  0  0  0  0  0  0  0  0  0  0  0
    5.5724    0.9146   -0.3502 I   0  0  0  0  0  0  0  0  0  0  0  0
    2.6801    0.3750   -1.1850 C   0  0  0  0  0  0  0  0  0  0  0  0
    1.3262    0.0734   -1.0081 C   0  0  0  0  0  0  0  0  0  0  0  0
   -3.2911    0.7412    0.9141 H   0  0  0  0  0  0  0  0  0  0  0  0
   -3.4001    1.2863   -0.8078 H   0  0  0  0  0  0  0  0  0  0  0  0
   -4.7029    0.2540   -0.0985 H   0  0  0  0  0  0  0  0  0  0  0  0
   -3.0699   -1.6446    0.1389 H   0  0  0  0  0  0  0  0  0  0  0  0
   -3.2413   -1.0947   -1.5647 H   0  0  0  0  0  0  0  0  0  0  0  0
    1.3063   -0.2245    2.3928 H   0  0  0  0  0  0  0  0  0  0  0  0
    3.6828    0.3064    2.0642 H   0  0  0  0  0  0  0  0  0  0  0  0
    3.0670    0.5431   -2.1817 H   0  0  0  0  0  0  0  0  0  0  0  0
    0.6871    0.0140   -1.8801 H   0  0  0  0  0  0  0  0  0  0  0  0
  1  2  1  0
  2  3  1  0
  3  4  1  0
  4  5  2  0
  4  6  1  0
  6  7  2  0
  7  8  1  0
  8  9  2  0
  9 10  1  0
  9 11  1  0
 11 12  2  0
 12  6  1  0
  1 13  1  0
  1 14  1  0
  1 15  1  0
  2 16  1  0
  2 17  1  0
  7 18  1  0
  8 19  1  0
 11 20  1  0
 12 21  1  0
M  END
