
     RDKit          3D

 26 25  0  0  0  0  0  0  0  0999 V2000
    2.7309    1.4472   -0.4985 C   0  0  0  0  0  0  0  0  0  0  0  0
    2.5157    0.5405   -1.7107 C   0  0  0  0  0  0  0  0  0  0  0  0
    2.5032   -0.9455   -1.3321 C   0  0  0  0  0  0  0  0  0  0  0  0
    1.3115   -1.2838   -0.5445 C   0  0  0  0  0  0  0  0  0  0  0  0
    0.3290   -1.5469    0.1020 C   0  0  0  0  0  0  0  0  0  0  0  0
   -0.8741   -1.8492    0.8894 C   0  0  0  0  0  0  0  0  0  0  0  0
   -2.0056   -0.8385    0.6211 C   0  0  0  0  0  0  0  0  0  0  0  0
   -2.3231   -0.8153   -0.7494 O   0  0  0  0  0  0  0  0  0  0  0  0
   -1.6235    0.5793    1.0888 C   0  0  0  0  0  0  0  0  0  0  0  0
   -2.8052    1.5425    0.9969 C   0  0  0  0  0  0  0  0  0  0  0  0
    3.6922    1.2016    0.0020 H   0  0  0  0  0  0  0  0  0  0  0  0
    2.7631    2.5058   -0.8309 H   0  0  0  0  0  0  0  0  0  0  0  0
    1.8991    1.3336    0.2290 H   0  0  0  0  0  0  0  0  0  0  0  0
    1.5621    0.8140   -2.2132 H   0  0  0  0  0  0  0  0  0  0  0  0
    3.3416    0.7159   -2.4336 H   0  0  0  0  0  0  0  0  0  0  0  0
    2.4953   -1.5560   -2.2595 H   0  0  0  0  0  0  0  0  0  0  0  0
    3.4143   -1.2044   -0.7526 H   0  0  0  0  0  0  0  0  0  0  0  0
   -0.6103   -1.8468    1.9693 H   0  0  0  0  0  0  0  0  0  0  0  0
   -1.2215   -2.8714    0.6257 H   0  0  0  0  0  0  0  0  0  0  0  0
   -2.8964   -1.1663    1.2073 H   0  0  0  0  0  0  0  0  0  0  0  0
   -2.8380   -1.6429   -0.9392 H   0  0  0  0  0  0  0  0  0  0  0  0
   -0.7910    0.9752    0.4667 H   0  0  0  0  0  0  0  0  0  0  0  0
   -1.2802    0.5446    2.1458 H   0  0  0  0  0  0  0  0  0  0  0  0
   -3.6478    1.1812    1.6243 H   0  0  0  0  0  0  0  0  0  0  0  0
   -2.4947    2.5441    1.3633 H   0  0  0  0  0  0  0  0  0  0  0  0
   -3.1466    1.6416   -0.0551 H   0  0  0  0  0  0  0  0  0  0  0  0
  1  2  1  0
  2  3  1  0
  3  4  1  0
  4  5  3  0
  5  6  1  0
  6  7  1  0
  7  8  1  0
  7  9  1  0
  9 10  1  0
  1 11  1  0
  1 12  1  0
  1 13  1  0
  2 14  1  0
  2 15  1  0
  3 16  1  0
  3 17  1  0
  6 18  1  0
  6 19  1  0
  7 20  1  0
  8 21  1  0
  9 22  1  0
  9 23  1  0
 10 24  1  0
 10 25  1  0
 10 26  1  0
M  END
