
     RDKit          3D

 19 18  0  0  0  0  0  0  0  0999 V2000
    3.5772    0.1398   -0.9916 C   0  0  0  0  0  0  0  0  0  0  0  0
    2.7847    1.2462   -0.3049 C   0  0  0  0  0  0  0  0  0  0  0  0
    1.4061    0.8932   -0.2085 O   0  0  0  0  0  0  0  0  0  0  0  0
    0.9113   -0.0301    0.7179 C   0  0  0  0  0  0  0  0  0  0  0  0
    1.6711   -0.5737    1.5636 O   0  0  0  0  0  0  0  0  0  0  0  0
   -0.4857   -0.3562    0.7098 C   0  0  0  0  0  0  0  0  0  0  0  0
   -1.6599   -0.6293    0.7015 C   0  0  0  0  0  0  0  0  0  0  0  0
   -3.0886   -0.9612    0.6911 C   0  0  0  0  0  0  0  0  0  0  0  0
   -3.8076   -0.1929   -0.4106 C   0  0  0  0  0  0  0  0  0  0  0  0
    3.5475   -0.7906   -0.3872 H   0  0  0  0  0  0  0  0  0  0  0  0
    3.1502   -0.0643   -1.9962 H   0  0  0  0  0  0  0  0  0  0  0  0
    4.6354    0.4555   -1.1077 H   0  0  0  0  0  0  0  0  0  0  0  0
    3.2037    1.4525    0.7040 H   0  0  0  0  0  0  0  0  0  0  0  0
    2.8705    2.1735   -0.9095 H   0  0  0  0  0  0  0  0  0  0  0  0
   -3.5293   -0.7001    1.6763 H   0  0  0  0  0  0  0  0  0  0  0  0
   -3.2068   -2.0524    0.5228 H   0  0  0  0  0  0  0  0  0  0  0  0
   -4.8863   -0.4560   -0.4028 H   0  0  0  0  0  0  0  0  0  0  0  0
   -3.7081    0.9018   -0.2469 H   0  0  0  0  0  0  0  0  0  0  0  0
   -3.3853   -0.4557   -1.4043 H   0  0  0  0  0  0  0  0  0  0  0  0
  1  2  1  0
  2  3  1  0
  3  4  1  0
  4  5  2  0
  4  6  1  0
  6  7  3  0
  7  8  1  0
  8  9  1  0
  1 10  1  0
  1 11  1  0
  1 12  1  0
  2 13  1  0
  2 14  1  0
  8 15  1  0
  8 16  1  0
  9 17  1  0
  9 18  1  0
  9 19  1  0
M  END
