
     RDKit          3D

 14 14  0  0  0  0  0  0  0  0999 V2000
   -2.0911   -2.5862    0.9099 Cl  0  0  0  0  0  0  0  0  0  0  0  0
   -1.2030   -1.1693    0.3791 C   0  0  0  0  0  0  0  0  0  0  0  0
    0.1843   -1.1177    0.5298 C   0  0  0  0  0  0  0  0  0  0  0  0
    0.9102    0.0123    0.1087 C   0  0  0  0  0  0  0  0  0  0  0  0
    0.2155    1.1005   -0.4718 C   0  0  0  0  0  0  0  0  0  0  0  0
    1.0751    2.5440   -1.0183 Cl  0  0  0  0  0  0  0  0  0  0  0  0
   -1.1838    1.0373   -0.6188 C   0  0  0  0  0  0  0  0  0  0  0  0
   -1.8839   -0.0949   -0.1934 C   0  0  0  0  0  0  0  0  0  0  0  0
   -2.0909    2.3646   -1.3344 Cl  0  0  0  0  0  0  0  0  0  0  0  0
    2.3812    0.0423    0.2797 C   0  0  0  0  0  0  0  0  0  0  0  0
    2.9942   -0.9293    0.7971 O   0  0  0  0  0  0  0  0  0  0  0  0
    0.6926   -1.9632    0.9769 H   0  0  0  0  0  0  0  0  0  0  0  0
   -2.9598   -0.1396   -0.3082 H   0  0  0  0  0  0  0  0  0  0  0  0
    2.9592    0.8991   -0.0362 H   0  0  0  0  0  0  0  0  0  0  0  0
  1  2  1  0
  2  3  2  0
  3  4  1  0
  4  5  2  0
  5  6  1  0
  5  7  1  0
  7  8  2  0
  7  9  1  0
  4 10  1  0
 10 11  2  0
  8  2  1  0
  3 12  1  0
  8 13  1  0
 10 14  1  0
M  END
