
     RDKit          3D

 29 29  0  0  0  0  0  0  0  0999 V2000
    2.3772   -2.0824    3.4058 C   0  0  0  0  0  0  0  0  0  0  0  0
    2.6047   -0.8805    2.5035 C   0  0  0  0  0  0  0  0  0  0  0  0
    2.0611   -1.1455    1.2140 O   0  0  0  0  0  0  0  0  0  0  0  0
    2.1115   -0.2156    0.1710 C   0  0  0  0  0  0  0  0  0  0  0  0
    2.6367    0.9185    0.3440 O   0  0  0  0  0  0  0  0  0  0  0  0
    1.4949   -0.5561   -1.1477 C   0  0  0  0  0  0  0  0  0  0  0  0
    0.0057   -0.3581   -1.0847 C   0  0  0  0  0  0  0  0  0  0  0  0
   -0.5531    0.8995   -1.3658 C   0  0  0  0  0  0  0  0  0  0  0  0
   -1.9451    1.0999   -1.2764 C   0  0  0  0  0  0  0  0  0  0  0  0
   -2.7698    0.0315   -0.8932 C   0  0  0  0  0  0  0  0  0  0  0  0
   -4.1482    0.2222   -0.8073 O   0  0  0  0  0  0  0  0  0  0  0  0
   -2.2104   -1.2187   -0.5976 C   0  0  0  0  0  0  0  0  0  0  0  0
   -0.8307   -1.4119   -0.6884 C   0  0  0  0  0  0  0  0  0  0  0  0
   -2.5427    2.3400   -1.5530 O   0  0  0  0  0  0  0  0  0  0  0  0
   -1.8322    3.5026   -1.9661 C   0  0  0  0  0  0  0  0  0  0  0  0
    2.8759   -2.9785    2.9783 H   0  0  0  0  0  0  0  0  0  0  0  0
    2.8007   -1.8798    4.4126 H   0  0  0  0  0  0  0  0  0  0  0  0
    1.2874   -2.2815    3.5043 H   0  0  0  0  0  0  0  0  0  0  0  0
    2.1046    0.0096    2.9456 H   0  0  0  0  0  0  0  0  0  0  0  0
    3.6966   -0.6837    2.4184 H   0  0  0  0  0  0  0  0  0  0  0  0
    1.9348    0.0807   -1.9470 H   0  0  0  0  0  0  0  0  0  0  0  0
    1.7339   -1.6115   -1.4031 H   0  0  0  0  0  0  0  0  0  0  0  0
    0.1011    1.7125   -1.6498 H   0  0  0  0  0  0  0  0  0  0  0  0
   -4.7724   -0.5315   -0.5428 H   0  0  0  0  0  0  0  0  0  0  0  0
   -2.8452   -2.0423   -0.2957 H   0  0  0  0  0  0  0  0  0  0  0  0
   -0.4140   -2.3820   -0.4481 H   0  0  0  0  0  0  0  0  0  0  0  0
   -1.3033    3.3045   -2.9215 H   0  0  0  0  0  0  0  0  0  0  0  0
   -1.1070    3.8083   -1.1822 H   0  0  0  0  0  0  0  0  0  0  0  0
   -2.5525    4.3296   -2.1273 H   0  0  0  0  0  0  0  0  0  0  0  0
  1  2  1  0
  2  3  1  0
  3  4  1  0
  4  5  2  0
  4  6  1  0
  6  7  1  0
  7  8  2  0
  8  9  1  0
  9 10  2  0
 10 11  1  0
 10 12  1  0
 12 13  2  0
  9 14  1  0
 14 15  1  0
 13  7  1  0
  1 16  1  0
  1 17  1  0
  1 18  1  0
  2 19  1  0
  2 20  1  0
  6 21  1  0
  6 22  1  0
  8 23  1  0
 11 24  1  0
 12 25  1  0
 13 26  1  0
 15 27  1  0
 15 28  1  0
 15 29  1  0
M  END
