
     RDKit          3D

 17 17  0  0  0  0  0  0  0  0999 V2000
   -2.8066   -0.7034   -0.6481 C   0  0  0  0  0  0  0  0  0  0  0  0
   -1.4503   -1.1365   -0.6650 O   0  0  0  0  0  0  0  0  0  0  0  0
   -0.3740   -0.3899   -0.1628 C   0  0  0  0  0  0  0  0  0  0  0  0
   -0.5426    0.8835    0.4160 C   0  0  0  0  0  0  0  0  0  0  0  0
    0.5643    1.5880    0.9026 C   0  0  0  0  0  0  0  0  0  0  0  0
    1.8433    1.0297    0.8158 C   0  0  0  0  0  0  0  0  0  0  0  0
    2.0206   -0.2332    0.2431 C   0  0  0  0  0  0  0  0  0  0  0  0
    0.9118   -0.9392   -0.2444 C   0  0  0  0  0  0  0  0  0  0  0  0
    3.3003   -0.7778    0.1629 O   0  0  0  0  0  0  0  0  0  0  0  0
    0.3478    3.1732    1.6223 Cl  0  0  0  0  0  0  0  0  0  0  0  0
   -3.1422   -0.5399    0.3978 H   0  0  0  0  0  0  0  0  0  0  0  0
   -2.9159    0.2326   -1.2357 H   0  0  0  0  0  0  0  0  0  0  0  0
   -3.4432   -1.4872   -1.1070 H   0  0  0  0  0  0  0  0  0  0  0  0
   -1.5234    1.3329    0.4927 H   0  0  0  0  0  0  0  0  0  0  0  0
    2.6994    1.5754    1.1925 H   0  0  0  0  0  0  0  0  0  0  0  0
    1.0479   -1.9175   -0.6882 H   0  0  0  0  0  0  0  0  0  0  0  0
    3.4627   -1.6906   -0.2463 H   0  0  0  0  0  0  0  0  0  0  0  0
  1  2  1  0
  2  3  1  0
  3  4  2  0
  4  5  1  0
  5  6  2  0
  6  7  1  0
  7  8  2  0
  7  9  1  0
  5 10  1  0
  8  3  1  0
  1 11  1  0
  1 12  1  0
  1 13  1  0
  4 14  1  0
  6 15  1  0
  8 16  1  0
  9 17  1  0
M  END
