
     RDKit          3D

 11 10  0  0  0  0  0  0  0  0999 V2000
   -1.1517    0.5967   -0.0238 C   0  0  0  0  0  0  0  0  0  0  0  0
   -0.1053   -0.5170    0.0027 C   0  0  0  0  0  0  0  0  0  0  0  0
   -0.0525   -1.0994    1.2768 O   0  0  0  0  0  0  0  0  0  0  0  0
    1.2168    0.0286   -0.3257 C   0  0  0  0  0  0  0  0  0  0  0  0
    2.3032    0.4763   -0.5960 C   0  0  0  0  0  0  0  0  0  0  0  0
   -2.1545    0.1766    0.2032 H   0  0  0  0  0  0  0  0  0  0  0  0
   -0.9119    1.3750    0.7328 H   0  0  0  0  0  0  0  0  0  0  0  0
   -1.1895    1.0666   -1.0303 H   0  0  0  0  0  0  0  0  0  0  0  0
   -0.3625   -1.2853   -0.7617 H   0  0  0  0  0  0  0  0  0  0  0  0
   -0.8487   -1.6876    1.3551 H   0  0  0  0  0  0  0  0  0  0  0  0
    3.2567    0.8694   -0.8332 H   0  0  0  0  0  0  0  0  0  0  0  0
  1  2  1  0
  2  3  1  0
  2  4  1  0
  4  5  3  0
  1  6  1  0
  1  7  1  0
  1  8  1  0
  2  9  1  0
  3 10  1  0
  5 11  1  0
M  END
