
     RDKit          3D

 19 19  0  0  0  0  0  0  0  0999 V2000
   -2.4590   -0.7917    0.2022 C   0  0  0  0  0  0  0  0  0  0  0  0
   -0.9910   -0.4970    0.0516 C   0  0  0  0  0  0  0  0  0  0  0  0
   -0.4834    0.8157    0.2030 C   0  0  0  0  0  0  0  0  0  0  0  0
   -1.3441    1.9226    0.5065 N   0  0  0  0  0  0  0  0  0  0  0  0
    0.8936    1.0458    0.0540 C   0  0  0  0  0  0  0  0  0  0  0  0
    1.7676   -0.0077   -0.2423 C   0  0  0  0  0  0  0  0  0  0  0  0
    3.1684    0.2395   -0.3917 N   0  0  0  0  0  0  0  0  0  0  0  0
    1.2621   -1.3034   -0.3912 C   0  0  0  0  0  0  0  0  0  0  0  0
   -0.1049   -1.5467   -0.2457 C   0  0  0  0  0  0  0  0  0  0  0  0
   -2.6792   -1.8700    0.0509 H   0  0  0  0  0  0  0  0  0  0  0  0
   -2.7954   -0.5134    1.2230 H   0  0  0  0  0  0  0  0  0  0  0  0
   -3.0372   -0.2153   -0.5503 H   0  0  0  0  0  0  0  0  0  0  0  0
   -0.9514    2.8844    0.6146 H   0  0  0  0  0  0  0  0  0  0  0  0
   -2.3739    1.8100    0.6279 H   0  0  0  0  0  0  0  0  0  0  0  0
    1.2862    2.0488    0.1691 H   0  0  0  0  0  0  0  0  0  0  0  0
    3.5562    1.2031   -0.2826 H   0  0  0  0  0  0  0  0  0  0  0  0
    3.8282   -0.5395   -0.6126 H   0  0  0  0  0  0  0  0  0  0  0  0
    1.9279   -2.1262   -0.6203 H   0  0  0  0  0  0  0  0  0  0  0  0
   -0.4708   -2.5590   -0.3660 H   0  0  0  0  0  0  0  0  0  0  0  0
  1  2  1  0
  2  3  2  0
  3  4  1  0
  3  5  1  0
  5  6  2  0
  6  7  1  0
  6  8  1  0
  8  9  2  0
  9  2  1  0
  1 10  1  0
  1 11  1  0
  1 12  1  0
  4 13  1  0
  4 14  1  0
  5 15  1  0
  7 16  1  0
  7 17  1  0
  8 18  1  0
  9 19  1  0
M  END
