
     RDKit          3D

 27 28  0  0  0  0  0  0  0  0999 V2000
    2.6341    0.3639    3.2684 O   0  0  0  0  0  1  0  0  0  0  0  0
    2.1664   -0.4390    2.2534 N   0  0  0  0  0  4  0  0  0  0  0  0
    1.3906   -1.3735    2.5396 O   0  0  0  0  0  0  0  0  0  0  0  0
    2.6955   -0.2970    0.9216 C   0  0  0  0  0  0  0  0  0  0  0  0
    3.9735    0.2575    0.7427 C   0  0  0  0  0  0  0  0  0  0  0  0
    4.5117    0.3966   -0.5362 C   0  0  0  0  0  0  0  0  0  0  0  0
    3.7655   -0.0126   -1.6387 C   0  0  0  0  0  0  0  0  0  0  0  0
    2.5232   -0.5314   -1.4631 N   0  0  0  0  0  0  0  0  0  0  0  0
    1.9669   -0.6828   -0.2304 C   0  0  0  0  0  0  0  0  0  0  0  0
    0.2895   -1.3217   -0.1434 S   0  0  0  0  0  0  0  0  0  0  0  0
   -0.4714    0.3320   -0.2213 C   0  0  0  0  0  0  0  0  0  0  0  0
   -1.9627    0.2008   -0.1164 C   0  0  0  0  0  0  0  0  0  0  0  0
   -2.5838    0.1769    1.1435 C   0  0  0  0  0  0  0  0  0  0  0  0
   -3.9701    0.0210    1.2419 C   0  0  0  0  0  0  0  0  0  0  0  0
   -4.7428   -0.1222    0.0861 C   0  0  0  0  0  0  0  0  0  0  0  0
   -4.1300   -0.1141   -1.1700 C   0  0  0  0  0  0  0  0  0  0  0  0
   -2.7440    0.0415   -1.2730 C   0  0  0  0  0  0  0  0  0  0  0  0
    4.5629    0.5688    1.5956 H   0  0  0  0  0  0  0  0  0  0  0  0
    5.5004    0.8159   -0.6708 H   0  0  0  0  0  0  0  0  0  0  0  0
    4.1704    0.0886   -2.6367 H   0  0  0  0  0  0  0  0  0  0  0  0
   -0.1948    0.8241   -1.1789 H   0  0  0  0  0  0  0  0  0  0  0  0
   -0.0866    0.9615    0.6103 H   0  0  0  0  0  0  0  0  0  0  0  0
   -1.9951    0.2772    2.0471 H   0  0  0  0  0  0  0  0  0  0  0  0
   -4.4448    0.0075    2.2145 H   0  0  0  0  0  0  0  0  0  0  0  0
   -5.8154   -0.2441    0.1641 H   0  0  0  0  0  0  0  0  0  0  0  0
   -4.7287   -0.2320   -2.0640 H   0  0  0  0  0  0  0  0  0  0  0  0
   -2.2805    0.0367   -2.2518 H   0  0  0  0  0  0  0  0  0  0  0  0
  1  2  1  0
  2  3  2  0
  2  4  1  0
  4  5  2  0
  5  6  1  0
  6  7  2  0
  7  8  1  0
  8  9  2  0
  9 10  1  0
 10 11  1  0
 11 12  1  0
 12 13  2  0
 13 14  1  0
 14 15  2  0
 15 16  1  0
 16 17  2  0
  9  4  1  0
 17 12  1  0
  5 18  1  0
  6 19  1  0
  7 20  1  0
 11 21  1  0
 11 22  1  0
 13 23  1  0
 14 24  1  0
 15 25  1  0
 16 26  1  0
 17 27  1  0
M  CHG  2   1  -1   2   1
M  END
