
     RDKit          3D

 13 12  0  0  0  0  0  0  0  0999 V2000
   -1.7467    2.8817    0.2999 S   0  0  0  0  0  0  0  0  0  0  0  0
   -2.0612    1.3083    0.1538 C   0  0  0  0  0  0  0  0  0  0  0  0
   -2.3072    0.0647    0.0383 N   0  0  0  0  0  0  0  0  0  0  0  0
   -1.4030   -0.8427   -0.6607 C   0  0  0  0  0  0  0  0  0  0  0  0
   -0.1505   -1.0730    0.1355 C   0  0  0  0  0  0  0  0  0  0  0  0
    0.8471   -0.1897    0.1407 C   0  0  0  0  0  0  0  0  0  0  0  0
    2.0196   -0.4441    0.9135 N   0  0  0  0  0  0  0  0  0  0  0  0
    2.9808    0.3872    0.9372 C   0  0  0  0  0  0  0  0  0  0  0  0
    4.1987    1.4419    0.9668 S   0  0  0  0  0  0  0  0  0  0  0  0
   -1.1654   -0.4541   -1.6760 H   0  0  0  0  0  0  0  0  0  0  0  0
   -1.9194   -1.8174   -0.7864 H   0  0  0  0  0  0  0  0  0  0  0  0
   -0.0612   -1.9850    0.7140 H   0  0  0  0  0  0  0  0  0  0  0  0
    0.7685    0.7222   -0.4428 H   0  0  0  0  0  0  0  0  0  0  0  0
  1  2  2  0
  2  3  2  0
  3  4  1  0
  4  5  1  0
  5  6  2  0
  6  7  1  0
  7  8  2  0
  8  9  2  0
  4 10  1  0
  4 11  1  0
  5 12  1  0
  6 13  1  0
M  END
