
     RDKit          3D

 25 25  0  0  0  0  0  0  0  0999 V2000
    3.4928   -0.4759    0.1218 C   0  0  0  0  0  0  0  0  0  0  0  0
    2.6872    0.7938   -0.1625 C   0  0  0  0  0  0  0  0  0  0  0  0
    1.1991    0.5441   -0.4891 C   0  0  0  0  0  0  0  0  0  0  0  0
    1.0605   -0.2263   -1.6587 O   0  0  0  0  0  0  0  0  0  0  0  0
    0.4170   -0.0635    0.6968 C   0  0  0  0  0  0  0  0  0  0  0  0
   -1.0638   -0.0772    0.4181 C   0  0  0  0  0  0  0  0  0  0  0  0
   -1.6701   -1.2100   -0.1512 C   0  0  0  0  0  0  0  0  0  0  0  0
   -3.0393   -1.2079   -0.4356 C   0  0  0  0  0  0  0  0  0  0  0  0
   -3.8101   -0.0747   -0.1617 C   0  0  0  0  0  0  0  0  0  0  0  0
   -3.2124    1.0597    0.3942 C   0  0  0  0  0  0  0  0  0  0  0  0
   -1.8436    1.0620    0.6801 C   0  0  0  0  0  0  0  0  0  0  0  0
    3.0945   -1.0089    1.0093 H   0  0  0  0  0  0  0  0  0  0  0  0
    3.4878   -1.1536   -0.7568 H   0  0  0  0  0  0  0  0  0  0  0  0
    4.5468   -0.1986    0.3343 H   0  0  0  0  0  0  0  0  0  0  0  0
    3.1558    1.3217   -1.0214 H   0  0  0  0  0  0  0  0  0  0  0  0
    2.7607    1.4686    0.7181 H   0  0  0  0  0  0  0  0  0  0  0  0
    0.7578    1.5433   -0.7003 H   0  0  0  0  0  0  0  0  0  0  0  0
    1.2582   -1.1712   -1.4298 H   0  0  0  0  0  0  0  0  0  0  0  0
    0.7662   -1.0976    0.9054 H   0  0  0  0  0  0  0  0  0  0  0  0
    0.6103    0.5340    1.6148 H   0  0  0  0  0  0  0  0  0  0  0  0
   -1.0835   -2.0923   -0.3753 H   0  0  0  0  0  0  0  0  0  0  0  0
   -3.5023   -2.0839   -0.8711 H   0  0  0  0  0  0  0  0  0  0  0  0
   -4.8695   -0.0744   -0.3835 H   0  0  0  0  0  0  0  0  0  0  0  0
   -3.8092    1.9387    0.6008 H   0  0  0  0  0  0  0  0  0  0  0  0
   -1.3908    1.9502    1.1033 H   0  0  0  0  0  0  0  0  0  0  0  0
  1  2  1  0
  2  3  1  0
  3  4  1  0
  3  5  1  0
  5  6  1  0
  6  7  2  0
  7  8  1  0
  8  9  2  0
  9 10  1  0
 10 11  2  0
 11  6  1  0
  1 12  1  0
  1 13  1  0
  1 14  1  0
  2 15  1  0
  2 16  1  0
  3 17  1  0
  4 18  1  0
  5 19  1  0
  5 20  1  0
  7 21  1  0
  8 22  1  0
  9 23  1  0
 10 24  1  0
 11 25  1  0
M  END
