
     RDKit          3D

 13 13  0  0  0  0  0  0  0  0999 V2000
   -2.3423    1.0103    0.0890 O   0  0  0  0  0  0  0  0  0  0  0  0
   -1.0763    0.4219    0.0376 C   0  0  0  0  0  0  0  0  0  0  0  0
    0.1008    1.1986    0.0917 C   0  0  0  0  0  0  0  0  0  0  0  0
    0.0047    2.9551    0.2273 Cl  0  0  0  0  0  0  0  0  0  0  0  0
    1.3596    0.5679    0.0371 C   0  0  0  0  0  0  0  0  0  0  0  0
    1.4361   -0.8315   -0.0709 C   0  0  0  0  0  0  0  0  0  0  0  0
    2.9863   -1.6606   -0.1421 Cl  0  0  0  0  0  0  0  0  0  0  0  0
    0.2663   -1.5928   -0.1238 C   0  0  0  0  0  0  0  0  0  0  0  0
   -0.9836   -0.9728   -0.0701 C   0  0  0  0  0  0  0  0  0  0  0  0
   -2.4352   -1.9610   -0.1391 Cl  0  0  0  0  0  0  0  0  0  0  0  0
    2.8394    1.5266    0.1037 Cl  0  0  0  0  0  0  0  0  0  0  0  0
   -2.4842    2.0091    0.1665 H   0  0  0  0  0  0  0  0  0  0  0  0
    0.3285   -2.6707   -0.2070 H   0  0  0  0  0  0  0  0  0  0  0  0
  1  2  1  0
  2  3  2  0
  3  4  1  0
  3  5  1  0
  5  6  2  0
  6  7  1  0
  6  8  1  0
  8  9  2  0
  9 10  1  0
  5 11  1  0
  9  2  1  0
  1 12  1  0
  8 13  1  0
M  END
