
     RDKit          3D

 19 18  0  0  0  0  0  0  0  0999 V2000
   -2.9330    0.5311   -0.5006 C   0  0  0  0  0  0  0  0  0  0  0  0
   -1.7624   -0.0083    0.3163 C   0  0  0  0  0  0  0  0  0  0  0  0
   -0.4254    0.2746   -0.3783 C   0  0  0  0  0  0  0  0  0  0  0  0
    0.7482   -0.2687    0.4453 C   0  0  0  0  0  0  0  0  0  0  0  0
    2.0850    0.0140   -0.2488 C   0  0  0  0  0  0  0  0  0  0  0  0
    3.2369   -0.5157    0.5531 C   0  0  0  0  0  0  0  0  0  0  0  0
    4.3782   -0.3759    0.1444 O   0  0  0  0  0  0  0  0  0  0  0  0
   -2.8415    1.6310   -0.6264 H   0  0  0  0  0  0  0  0  0  0  0  0
   -3.8858    0.3120    0.0259 H   0  0  0  0  0  0  0  0  0  0  0  0
   -2.9608    0.0481   -1.5006 H   0  0  0  0  0  0  0  0  0  0  0  0
   -1.8916   -1.1047    0.4488 H   0  0  0  0  0  0  0  0  0  0  0  0
   -1.7729    0.4715    1.3193 H   0  0  0  0  0  0  0  0  0  0  0  0
   -0.3049    1.3726   -0.5108 H   0  0  0  0  0  0  0  0  0  0  0  0
   -0.4238   -0.2050   -1.3821 H   0  0  0  0  0  0  0  0  0  0  0  0
    0.7468    0.2114    1.4492 H   0  0  0  0  0  0  0  0  0  0  0  0
    0.6279   -1.3670    0.5774 H   0  0  0  0  0  0  0  0  0  0  0  0
    2.0947   -0.4675   -1.2508 H   0  0  0  0  0  0  0  0  0  0  0  0
    2.2136    1.1105   -0.3793 H   0  0  0  0  0  0  0  0  0  0  0  0
    3.0710   -1.0250    1.4979 H   0  0  0  0  0  0  0  0  0  0  0  0
  1  2  1  0
  2  3  1  0
  3  4  1  0
  4  5  1  0
  5  6  1  0
  6  7  2  0
  1  8  1  0
  1  9  1  0
  1 10  1  0
  2 11  1  0
  2 12  1  0
  3 13  1  0
  3 14  1  0
  4 15  1  0
  4 16  1  0
  5 17  1  0
  5 18  1  0
  6 19  1  0
M  END
