
     RDKit          3D

 17 17  0  0  0  0  0  0  0  0999 V2000
   -0.5031    2.6714   -0.1211 O   0  0  0  0  0  0  0  0  0  0  0  0
    0.1189    1.4252   -0.0281 C   0  0  0  0  0  0  0  0  0  0  0  0
    1.5045    1.3902    0.1510 C   0  0  0  0  0  0  0  0  0  0  0  0
    2.1662    0.1739    0.3054 C   0  0  0  0  0  0  0  0  0  0  0  0
    1.4507   -1.0221    0.2661 C   0  0  0  0  0  0  0  0  0  0  0  0
    0.0601   -1.0194    0.0579 C   0  0  0  0  0  0  0  0  0  0  0  0
   -0.6165    0.2188   -0.0824 C   0  0  0  0  0  0  0  0  0  0  0  0
   -2.0406    0.2570   -0.2360 N   0  0  0  0  0  4  0  0  0  0  0  0
   -2.6017    0.8482   -1.3440 O   0  0  0  0  0  1  0  0  0  0  0  0
   -2.7794   -0.2709    0.6205 O   0  0  0  0  0  0  0  0  0  0  0  0
   -0.6404   -2.2725   -0.0472 N   0  0  0  0  0  4  0  0  0  0  0  0
   -1.7129   -2.4053   -0.8989 O   0  0  0  0  0  1  0  0  0  0  0  0
   -0.1939   -3.2920    0.5186 O   0  0  0  0  0  0  0  0  0  0  0  0
   -1.5071    2.7824   -0.1769 H   0  0  0  0  0  0  0  0  0  0  0  0
    2.0685    2.3137    0.1901 H   0  0  0  0  0  0  0  0  0  0  0  0
    3.2384    0.1575    0.4535 H   0  0  0  0  0  0  0  0  0  0  0  0
    1.9883   -1.9560    0.3715 H   0  0  0  0  0  0  0  0  0  0  0  0
  1  2  1  0
  2  3  2  0
  3  4  1  0
  4  5  2  0
  5  6  1  0
  6  7  2  0
  7  8  1  0
  8  9  1  0
  8 10  2  0
  6 11  1  0
 11 12  1  0
 11 13  2  0
  7  2  1  0
  1 14  1  0
  3 15  1  0
  4 16  1  0
  5 17  1  0
M  CHG  4   8   1   9  -1  11   1  12  -1
M  END
