
     RDKit          3D

 27 28  0  0  0  0  0  0  0  0999 V2000
    2.3941   -0.1923   -2.3552 O   0  0  0  0  0  0  0  0  0  0  0  0
    2.3432    0.0405   -0.9758 C   0  0  0  0  0  0  0  0  0  0  0  0
    3.3902    0.7899   -0.4202 C   0  0  0  0  0  0  0  0  0  0  0  0
    4.6626    1.4418   -1.4440 Cl  0  0  0  0  0  0  0  0  0  0  0  0
    3.4507    1.0169    0.9512 C   0  0  0  0  0  0  0  0  0  0  0  0
    2.4831    0.4834    1.7969 C   0  0  0  0  0  0  0  0  0  0  0  0
    2.6430    0.7628    3.5278 Cl  0  0  0  0  0  0  0  0  0  0  0  0
    1.4143   -0.2603    1.2680 C   0  0  0  0  0  0  0  0  0  0  0  0
    1.2971   -0.4485   -0.1365 C   0  0  0  0  0  0  0  0  0  0  0  0
    0.0803   -1.1811   -0.6990 C   0  0  0  0  0  0  0  0  0  0  0  0
   -1.2351   -0.4630   -0.4030 C   0  0  0  0  0  0  0  0  0  0  0  0
   -2.2733   -1.0683    0.3676 C   0  0  0  0  0  0  0  0  0  0  0  0
   -2.2186   -2.3893    0.8275 O   0  0  0  0  0  0  0  0  0  0  0  0
   -3.4214   -0.3311    0.6917 C   0  0  0  0  0  0  0  0  0  0  0  0
   -3.5858    0.9688    0.2239 C   0  0  0  0  0  0  0  0  0  0  0  0
   -2.6215    1.5507   -0.5932 C   0  0  0  0  0  0  0  0  0  0  0  0
   -1.4539    0.8418   -0.9239 C   0  0  0  0  0  0  0  0  0  0  0  0
   -0.3054    1.5945   -2.0349 Cl  0  0  0  0  0  0  0  0  0  0  0  0
   -2.9111    3.1799   -1.1947 Cl  0  0  0  0  0  0  0  0  0  0  0  0
   -4.6898   -1.0428    1.6801 Cl  0  0  0  0  0  0  0  0  0  0  0  0
    0.2642   -0.9877    2.3940 Cl  0  0  0  0  0  0  0  0  0  0  0  0
    1.7922   -0.8191   -2.8659 H   0  0  0  0  0  0  0  0  0  0  0  0
    4.2692    1.5929    1.3650 H   0  0  0  0  0  0  0  0  0  0  0  0
    0.1118   -1.3241   -1.7900 H   0  0  0  0  0  0  0  0  0  0  0  0
    0.1282   -2.2055   -0.2988 H   0  0  0  0  0  0  0  0  0  0  0  0
   -1.5274   -3.0735    0.5626 H   0  0  0  0  0  0  0  0  0  0  0  0
   -4.4811    1.5225    0.4786 H   0  0  0  0  0  0  0  0  0  0  0  0
  1  2  1  0
  2  3  2  0
  3  4  1  0
  3  5  1  0
  5  6  2  0
  6  7  1  0
  6  8  1  0
  8  9  2  0
  9 10  1  0
 10 11  1  0
 11 12  2  0
 12 13  1  0
 12 14  1  0
 14 15  2  0
 15 16  1  0
 16 17  2  0
 17 18  1  0
 16 19  1  0
 14 20  1  0
  8 21  1  0
  9  2  1  0
 17 11  1  0
  1 22  1  0
  5 23  1  0
 10 24  1  0
 10 25  1  0
 13 26  1  0
 15 27  1  0
M  END
