
     RDKit          3D

 15 14  0  0  0  0  0  0  0  0999 V2000
   -0.9360   -1.2344    0.0720 C   0  0  0  0  0  0  0  0  0  0  0  0
   -0.3047    0.0607   -0.4544 C   0  0  0  0  0  0  0  0  0  0  0  0
   -0.8203    1.2742    0.3294 C   0  0  0  0  0  0  0  0  0  0  0  0
    1.2309   -0.0136   -0.4211 C   0  0  0  0  0  0  0  0  0  0  0  0
    1.6926   -0.1697    0.8935 O   0  0  0  0  0  0  0  0  0  0  0  0
   -0.6798   -1.3936    1.1414 H   0  0  0  0  0  0  0  0  0  0  0  0
   -0.5746   -2.1038   -0.5175 H   0  0  0  0  0  0  0  0  0  0  0  0
   -2.0416   -1.1867   -0.0259 H   0  0  0  0  0  0  0  0  0  0  0  0
   -0.6154    0.1839   -1.5156 H   0  0  0  0  0  0  0  0  0  0  0  0
   -1.9247    1.3483    0.2342 H   0  0  0  0  0  0  0  0  0  0  0  0
   -0.5607    1.1894    1.4064 H   0  0  0  0  0  0  0  0  0  0  0  0
   -0.3757    2.2085   -0.0751 H   0  0  0  0  0  0  0  0  0  0  0  0
    1.5726   -0.8716   -1.0429 H   0  0  0  0  0  0  0  0  0  0  0  0
    1.6551    0.9179   -0.8593 H   0  0  0  0  0  0  0  0  0  0  0  0
    2.6824   -0.2094    0.8348 H   0  0  0  0  0  0  0  0  0  0  0  0
  1  2  1  0
  2  3  1  0
  2  4  1  0
  4  5  1  0
  1  6  1  0
  1  7  1  0
  1  8  1  0
  2  9  1  0
  3 10  1  0
  3 11  1  0
  3 12  1  0
  4 13  1  0
  4 14  1  0
  5 15  1  0
M  END
