
     RDKit          3D

 11 10  0  0  0  0  0  0  0  0999 V2000
   -1.3233    0.4488    0.4569 C   0  0  0  0  0  0  0  0  0  0  0  0
   -0.5166    0.1525   -0.7717 C   0  0  0  0  0  0  0  0  0  0  0  0
   -1.0505    0.3021   -1.9030 O   0  0  0  0  0  0  0  0  0  0  0  0
    0.8845   -0.3095   -0.7056 C   0  0  0  0  0  0  0  0  0  0  0  0
    1.5416   -0.4996    0.4381 C   0  0  0  0  0  0  0  0  0  0  0  0
   -2.3467    0.7807    0.1801 H   0  0  0  0  0  0  0  0  0  0  0  0
   -0.8364    1.2575    1.0412 H   0  0  0  0  0  0  0  0  0  0  0  0
   -1.4062   -0.4647    1.0823 H   0  0  0  0  0  0  0  0  0  0  0  0
    1.4045   -0.5038   -1.6359 H   0  0  0  0  0  0  0  0  0  0  0  0
    1.0803   -0.3240    1.4006 H   0  0  0  0  0  0  0  0  0  0  0  0
    2.5688   -0.8400    0.4169 H   0  0  0  0  0  0  0  0  0  0  0  0
  1  2  1  0
  2  3  2  0
  2  4  1  0
  4  5  2  3
  1  6  1  0
  1  7  1  0
  1  8  1  0
  4  9  1  0
  5 10  1  0
  5 11  1  0
M  END
