
     RDKit          3D

 19 20  0  0  0  0  0  0  0  0999 V2000
    3.6467    0.6737    0.0204 O   0  0  0  0  0  0  0  0  0  0  0  0
    2.3338    0.2027   -0.0001 C   0  0  0  0  0  0  0  0  0  0  0  0
    2.0880   -1.1134   -0.0746 C   0  0  0  0  0  0  0  0  0  0  0  0
    0.7086   -1.6331   -0.0975 C   0  0  0  0  0  0  0  0  0  0  0  0
    0.5175   -2.8769   -0.1681 O   0  0  0  0  0  0  0  0  0  0  0  0
   -0.4346   -0.6935   -0.0377 C   0  0  0  0  0  0  0  0  0  0  0  0
   -1.7610   -1.1582   -0.0578 C   0  0  0  0  0  0  0  0  0  0  0  0
   -2.8242   -0.2534   -0.0003 C   0  0  0  0  0  0  0  0  0  0  0  0
   -2.5744    1.1182    0.0773 C   0  0  0  0  0  0  0  0  0  0  0  0
   -1.2601    1.5923    0.0980 C   0  0  0  0  0  0  0  0  0  0  0  0
   -0.1819    0.6921    0.0407 C   0  0  0  0  0  0  0  0  0  0  0  0
    1.2205    1.1720    0.0613 C   0  0  0  0  0  0  0  0  0  0  0  0
    1.4745    2.4049    0.1309 O   0  0  0  0  0  0  0  0  0  0  0  0
    4.4418    0.0461   -0.0197 H   0  0  0  0  0  0  0  0  0  0  0  0
    2.9127   -1.8143   -0.1191 H   0  0  0  0  0  0  0  0  0  0  0  0
   -1.9755   -2.2179   -0.1177 H   0  0  0  0  0  0  0  0  0  0  0  0
   -3.8438   -0.6163   -0.0161 H   0  0  0  0  0  0  0  0  0  0  0  0
   -3.4009    1.8157    0.1216 H   0  0  0  0  0  0  0  0  0  0  0  0
   -1.0877    2.6595    0.1585 H   0  0  0  0  0  0  0  0  0  0  0  0
  1  2  1  0
  2  3  2  0
  3  4  1  0
  4  5  2  0
  4  6  1  0
  6  7  2  0
  7  8  1  0
  8  9  2  0
  9 10  1  0
 10 11  2  0
 11 12  1  0
 12 13  2  0
 12  2  1  0
 11  6  1  0
  1 14  1  0
  3 15  1  0
  7 16  1  0
  8 17  1  0
  9 18  1  0
 10 19  1  0
M  END
