
     RDKit          3D

 42 42  0  0  0  0  0  0  0  0999 V2000
    3.2000   -1.0586    3.4895 C   0  0  0  0  0  0  0  0  0  0  0  0
    3.7625   -0.0113    2.5288 C   0  0  0  0  0  0  0  0  0  0  0  0
    3.0476   -0.0074    1.1692 C   0  0  0  0  0  0  0  0  0  0  0  0
    1.6193    0.5434    1.2559 C   0  0  0  0  0  0  0  0  0  0  0  0
    1.0308    0.6035   -0.0412 O   0  0  0  0  0  0  0  0  0  0  0  0
    1.3119    1.6079   -0.9761 C   0  0  0  0  0  0  0  0  0  0  0  0
    2.1253    2.5301   -0.6919 O   0  0  0  0  0  0  0  0  0  0  0  0
    0.6872    1.5649   -2.3193 C   0  0  0  0  0  0  0  0  0  0  0  0
    1.4275    2.0380   -3.4190 C   0  0  0  0  0  0  0  0  0  0  0  0
    0.9318    1.9158   -4.7179 C   0  0  0  0  0  0  0  0  0  0  0  0
   -0.3069    1.3175   -4.9401 C   0  0  0  0  0  0  0  0  0  0  0  0
   -1.0662    0.8601   -3.8625 C   0  0  0  0  0  0  0  0  0  0  0  0
   -0.5961    0.9968   -2.5450 C   0  0  0  0  0  0  0  0  0  0  0  0
   -1.4918    0.5897   -1.4429 C   0  0  0  0  0  0  0  0  0  0  0  0
   -1.5766    1.2984   -0.4022 O   0  0  0  0  0  0  0  0  0  0  0  0
   -2.2753   -0.5621   -1.5799 O   0  0  0  0  0  0  0  0  0  0  0  0
   -3.0693   -1.0965   -0.5226 C   0  0  0  0  0  0  0  0  0  0  0  0
   -2.1743   -1.7665    0.5285 C   0  0  0  0  0  0  0  0  0  0  0  0
   -2.9800   -2.4951    1.6140 C   0  0  0  0  0  0  0  0  0  0  0  0
   -3.6985   -1.5323    2.5589 C   0  0  0  0  0  0  0  0  0  0  0  0
    3.8287   -1.0952    4.4040 H   0  0  0  0  0  0  0  0  0  0  0  0
    2.1650   -0.7985    3.7933 H   0  0  0  0  0  0  0  0  0  0  0  0
    3.2062   -2.0637    3.0166 H   0  0  0  0  0  0  0  0  0  0  0  0
    3.7006    0.9954    2.9965 H   0  0  0  0  0  0  0  0  0  0  0  0
    4.8376   -0.2372    2.3590 H   0  0  0  0  0  0  0  0  0  0  0  0
    3.6367    0.6265    0.4725 H   0  0  0  0  0  0  0  0  0  0  0  0
    3.0259   -1.0360    0.7476 H   0  0  0  0  0  0  0  0  0  0  0  0
    1.6108    1.5511    1.7263 H   0  0  0  0  0  0  0  0  0  0  0  0
    0.9985   -0.1329    1.8788 H   0  0  0  0  0  0  0  0  0  0  0  0
    2.4084    2.4751   -3.2763 H   0  0  0  0  0  0  0  0  0  0  0  0
    1.5167    2.2735   -5.5556 H   0  0  0  0  0  0  0  0  0  0  0  0
   -0.6854    1.2181   -5.9493 H   0  0  0  0  0  0  0  0  0  0  0  0
   -2.0394    0.4253   -4.0568 H   0  0  0  0  0  0  0  0  0  0  0  0
   -3.6823   -0.2886   -0.0690 H   0  0  0  0  0  0  0  0  0  0  0  0
   -3.7585   -1.8529   -0.9543 H   0  0  0  0  0  0  0  0  0  0  0  0
   -1.5275   -2.5108    0.0150 H   0  0  0  0  0  0  0  0  0  0  0  0
   -1.5066   -1.0128    0.9991 H   0  0  0  0  0  0  0  0  0  0  0  0
   -2.2792   -3.1142    2.2150 H   0  0  0  0  0  0  0  0  0  0  0  0
   -3.7194   -3.1817    1.1474 H   0  0  0  0  0  0  0  0  0  0  0  0
   -2.9782   -0.8111    3.0004 H   0  0  0  0  0  0  0  0  0  0  0  0
   -4.4963   -0.9776    2.0232 H   0  0  0  0  0  0  0  0  0  0  0  0
   -4.1710   -2.1080    3.3824 H   0  0  0  0  0  0  0  0  0  0  0  0
  1  2  1  0
  2  3  1  0
  3  4  1  0
  4  5  1  0
  5  6  1  0
  6  7  2  0
  6  8  1  0
  8  9  2  0
  9 10  1  0
 10 11  2  0
 11 12  1  0
 12 13  2  0
 13 14  1  0
 14 15  2  0
 14 16  1  0
 16 17  1  0
 17 18  1  0
 18 19  1  0
 19 20  1  0
 13  8  1  0
  1 21  1  0
  1 22  1  0
  1 23  1  0
  2 24  1  0
  2 25  1  0
  3 26  1  0
  3 27  1  0
  4 28  1  0
  4 29  1  0
  9 30  1  0
 10 31  1  0
 11 32  1  0
 12 33  1  0
 17 34  1  0
 17 35  1  0
 18 36  1  0
 18 37  1  0
 19 38  1  0
 19 39  1  0
 20 40  1  0
 20 41  1  0
 20 42  1  0
M  END
