
     RDKit          3D

 19 19  0  0  0  0  0  0  0  0999 V2000
   -2.4792   -0.8855    0.6363 C   0  0  0  0  0  0  0  0  0  0  0  0
   -1.1700   -0.2519    0.2508 C   0  0  0  0  0  0  0  0  0  0  0  0
    0.0323   -0.9914    0.2905 C   0  0  0  0  0  0  0  0  0  0  0  0
    0.0140   -2.6851    0.7980 Cl  0  0  0  0  0  0  0  0  0  0  0  0
    1.2492   -0.3759   -0.0757 C   0  0  0  0  0  0  0  0  0  0  0  0
    1.2511    0.9694   -0.4768 C   0  0  0  0  0  0  0  0  0  0  0  0
    0.0631    1.7008   -0.5163 C   0  0  0  0  0  0  0  0  0  0  0  0
   -1.1428    1.0922   -0.1537 C   0  0  0  0  0  0  0  0  0  0  0  0
    0.0918    3.0346   -0.9180 O   0  0  0  0  0  0  0  0  0  0  0  0
    2.5433   -1.1427   -0.0416 C   0  0  0  0  0  0  0  0  0  0  0  0
   -2.6885   -1.7488   -0.0297 H   0  0  0  0  0  0  0  0  0  0  0  0
   -3.3241   -0.1695    0.5499 H   0  0  0  0  0  0  0  0  0  0  0  0
   -2.4304   -1.2369    1.6884 H   0  0  0  0  0  0  0  0  0  0  0  0
    2.1768    1.4552   -0.7606 H   0  0  0  0  0  0  0  0  0  0  0  0
   -2.0584    1.6699   -0.1883 H   0  0  0  0  0  0  0  0  0  0  0  0
   -0.7519    3.5946   -0.9581 H   0  0  0  0  0  0  0  0  0  0  0  0
    2.4814   -2.0136   -0.7276 H   0  0  0  0  0  0  0  0  0  0  0  0
    3.4026   -0.5138   -0.3581 H   0  0  0  0  0  0  0  0  0  0  0  0
    2.7396   -1.5016    0.9906 H   0  0  0  0  0  0  0  0  0  0  0  0
  1  2  1  0
  2  3  2  0
  3  4  1  0
  3  5  1  0
  5  6  2  0
  6  7  1  0
  7  8  2  0
  7  9  1  0
  5 10  1  0
  8  2  1  0
  1 11  1  0
  1 12  1  0
  1 13  1  0
  6 14  1  0
  8 15  1  0
  9 16  1  0
 10 17  1  0
 10 18  1  0
 10 19  1  0
M  END
