
     RDKit          3D

 22 22  0  0  0  0  0  0  0  0999 V2000
   -1.6529    1.6996   -0.4356 C   0  0  0  0  0  0  0  0  0  0  0  0
   -1.3892    0.2089   -0.1900 C   0  0  0  0  0  0  0  0  0  0  0  0
   -2.1541   -0.2903    1.0420 C   0  0  0  0  0  0  0  0  0  0  0  0
    0.1011   -0.0701   -0.0601 C   0  0  0  0  0  0  0  0  0  0  0  0
    0.8442    0.5181    0.9841 C   0  0  0  0  0  0  0  0  0  0  0  0
    2.2124    0.2691    1.1129 C   0  0  0  0  0  0  0  0  0  0  0  0
    2.8601   -0.5682    0.2050 C   0  0  0  0  0  0  0  0  0  0  0  0
    2.1414   -1.1594   -0.8349 C   0  0  0  0  0  0  0  0  0  0  0  0
    0.7665   -0.9176   -0.9757 C   0  0  0  0  0  0  0  0  0  0  0  0
    0.0668   -1.5185   -2.0224 O   0  0  0  0  0  0  0  0  0  0  0  0
   -2.7348    1.8681   -0.6236 H   0  0  0  0  0  0  0  0  0  0  0  0
   -1.0882    2.0434   -1.3285 H   0  0  0  0  0  0  0  0  0  0  0  0
   -1.3488    2.3117    0.4397 H   0  0  0  0  0  0  0  0  0  0  0  0
   -1.8060   -0.3354   -1.0643 H   0  0  0  0  0  0  0  0  0  0  0  0
   -3.2472   -0.1659    0.8868 H   0  0  0  0  0  0  0  0  0  0  0  0
   -1.9479   -1.3697    1.2059 H   0  0  0  0  0  0  0  0  0  0  0  0
   -1.8622    0.2738    1.9529 H   0  0  0  0  0  0  0  0  0  0  0  0
    0.3661    1.1716    1.7020 H   0  0  0  0  0  0  0  0  0  0  0  0
    2.7715    0.7267    1.9189 H   0  0  0  0  0  0  0  0  0  0  0  0
    3.9205   -0.7595    0.3071 H   0  0  0  0  0  0  0  0  0  0  0  0
    2.6546   -1.8076   -1.5339 H   0  0  0  0  0  0  0  0  0  0  0  0
    0.5260   -2.1288   -2.6884 H   0  0  0  0  0  0  0  0  0  0  0  0
  1  2  1  0
  2  3  1  0
  2  4  1  0
  4  5  2  0
  5  6  1  0
  6  7  2  0
  7  8  1  0
  8  9  2  0
  9 10  1  0
  9  4  1  0
  1 11  1  0
  1 12  1  0
  1 13  1  0
  2 14  1  0
  3 15  1  0
  3 16  1  0
  3 17  1  0
  5 18  1  0
  6 19  1  0
  7 20  1  0
  8 21  1  0
 10 22  1  0
M  END
