
     RDKit          3D

 17 17  0  0  0  0  0  0  0  0999 V2000
   -2.1249   -0.5395   -0.1052 C   0  0  0  0  0  0  0  0  0  0  0  0
   -0.6267   -0.4072   -0.0364 C   0  0  0  0  0  0  0  0  0  0  0  0
    0.1528   -1.5766    0.0123 C   0  0  0  0  0  0  0  0  0  0  0  0
    1.5422   -1.5025    0.1151 C   0  0  0  0  0  0  0  0  0  0  0  0
    2.1744   -0.2606    0.1684 C   0  0  0  0  0  0  0  0  0  0  0  0
    3.9213   -0.1714    0.3034 Cl  0  0  0  0  0  0  0  0  0  0  0  0
    1.4173    0.9118    0.1058 C   0  0  0  0  0  0  0  0  0  0  0  0
    0.0167    0.8594   -0.0143 C   0  0  0  0  0  0  0  0  0  0  0  0
   -0.7211    2.0933   -0.1021 N   0  0  0  0  0  4  0  0  0  0  0  0
   -0.2079    3.2426    0.4541 O   0  0  0  0  0  1  0  0  0  0  0  0
   -1.7459    2.1770   -0.8095 O   0  0  0  0  0  0  0  0  0  0  0  0
   -2.6062    0.1604    0.6099 H   0  0  0  0  0  0  0  0  0  0  0  0
   -2.4546   -1.5655    0.1650 H   0  0  0  0  0  0  0  0  0  0  0  0
   -2.4732   -0.3233   -1.1366 H   0  0  0  0  0  0  0  0  0  0  0  0
   -0.3164   -2.5524   -0.0189 H   0  0  0  0  0  0  0  0  0  0  0  0
    2.1265   -2.4129    0.1578 H   0  0  0  0  0  0  0  0  0  0  0  0
    1.9258    1.8674    0.1311 H   0  0  0  0  0  0  0  0  0  0  0  0
  1  2  1  0
  2  3  2  0
  3  4  1  0
  4  5  2  0
  5  6  1  0
  5  7  1  0
  7  8  2  0
  8  9  1  0
  9 10  1  0
  9 11  2  0
  8  2  1  0
  1 12  1  0
  1 13  1  0
  1 14  1  0
  3 15  1  0
  4 16  1  0
  7 17  1  0
M  CHG  2   9   1  10  -1
M  END
