
     RDKit          3D

 27 28  0  0  0  0  0  0  0  0999 V2000
    4.8559   -0.3498    0.0997 C   0  0  0  0  0  0  0  0  0  0  0  0
    3.8745    0.7689   -0.0843 C   0  0  0  0  0  0  0  0  0  0  0  0
    4.3216    1.9379   -0.2398 O   0  0  0  0  0  0  0  0  0  0  0  0
    2.4051    0.5340   -0.0870 C   0  0  0  0  0  0  0  0  0  0  0  0
    1.5197    1.6123   -0.2664 C   0  0  0  0  0  0  0  0  0  0  0  0
    0.1372    1.4079   -0.2709 C   0  0  0  0  0  0  0  0  0  0  0  0
   -0.3955    0.1197   -0.0972 C   0  0  0  0  0  0  0  0  0  0  0  0
    0.4861   -0.9595    0.0817 C   0  0  0  0  0  0  0  0  0  0  0  0
    1.8689   -0.7559    0.0875 C   0  0  0  0  0  0  0  0  0  0  0  0
   -1.8650   -0.0977   -0.1026 C   0  0  0  0  0  0  0  0  0  0  0  0
   -2.4207   -1.2179   -0.7498 C   0  0  0  0  0  0  0  0  0  0  0  0
   -3.8044   -1.4197   -0.7537 C   0  0  0  0  0  0  0  0  0  0  0  0
   -4.6474   -0.5092   -0.1129 C   0  0  0  0  0  0  0  0  0  0  0  0
   -4.1087    0.6057    0.5330 C   0  0  0  0  0  0  0  0  0  0  0  0
   -2.7259    0.8131    0.5393 C   0  0  0  0  0  0  0  0  0  0  0  0
    5.8973    0.0356    0.0664 H   0  0  0  0  0  0  0  0  0  0  0  0
    4.7326   -1.0969   -0.7121 H   0  0  0  0  0  0  0  0  0  0  0  0
    4.6932   -0.8360    1.0843 H   0  0  0  0  0  0  0  0  0  0  0  0
    1.8944    2.6184   -0.4075 H   0  0  0  0  0  0  0  0  0  0  0  0
   -0.5152    2.2576   -0.4287 H   0  0  0  0  0  0  0  0  0  0  0  0
    0.1060   -1.9616    0.2358 H   0  0  0  0  0  0  0  0  0  0  0  0
    2.5112   -1.6140    0.2328 H   0  0  0  0  0  0  0  0  0  0  0  0
   -1.7876   -1.9275   -1.2675 H   0  0  0  0  0  0  0  0  0  0  0  0
   -4.2234   -2.2814   -1.2572 H   0  0  0  0  0  0  0  0  0  0  0  0
   -5.7181   -0.6676   -0.1169 H   0  0  0  0  0  0  0  0  0  0  0  0
   -4.7628    1.3086    1.0325 H   0  0  0  0  0  0  0  0  0  0  0  0
   -2.3291    1.6750    1.0608 H   0  0  0  0  0  0  0  0  0  0  0  0
  1  2  1  0
  2  3  2  0
  2  4  1  0
  4  5  2  0
  5  6  1  0
  6  7  2  0
  7  8  1  0
  8  9  2  0
  7 10  1  0
 10 11  2  0
 11 12  1  0
 12 13  2  0
 13 14  1  0
 14 15  2  0
  9  4  1  0
 15 10  1  0
  1 16  1  0
  1 17  1  0
  1 18  1  0
  5 19  1  0
  6 20  1  0
  8 21  1  0
  9 22  1  0
 11 23  1  0
 12 24  1  0
 13 25  1  0
 14 26  1  0
 15 27  1  0
M  END
