
     RDKit          3D

 13 12  0  0  0  0  0  0  0  0999 V2000
    1.4542    1.2729   -0.3869 O   0  0  0  0  0  0  0  0  0  0  0  0
    1.1607    0.0600    0.2542 C   0  0  0  0  0  0  0  0  0  0  0  0
   -0.1693   -0.5245   -0.2540 C   0  0  0  0  0  0  0  0  0  0  0  0
   -0.3350   -1.8152    0.2740 O   0  0  0  0  0  0  0  0  0  0  0  0
   -1.3756    0.3300    0.1648 C   0  0  0  0  0  0  0  0  0  0  0  0
   -1.5408    1.7896   -0.8497 Cl  0  0  0  0  0  0  0  0  0  0  0  0
    1.1904    2.0009    0.2342 H   0  0  0  0  0  0  0  0  0  0  0  0
    1.1357    0.1788    1.3633 H   0  0  0  0  0  0  0  0  0  0  0  0
    1.9789   -0.6544    0.0217 H   0  0  0  0  0  0  0  0  0  0  0  0
   -0.1449   -0.5821   -1.3679 H   0  0  0  0  0  0  0  0  0  0  0  0
    0.2507   -2.4206   -0.2521 H   0  0  0  0  0  0  0  0  0  0  0  0
   -2.3074   -0.2622    0.0410 H   0  0  0  0  0  0  0  0  0  0  0  0
   -1.2978    0.6268    1.2326 H   0  0  0  0  0  0  0  0  0  0  0  0
  1  2  1  0
  2  3  1  0
  3  4  1  0
  3  5  1  0
  5  6  1  0
  1  7  1  0
  2  8  1  0
  2  9  1  0
  3 10  1  0
  4 11  1  0
  5 12  1  0
  5 13  1  0
M  END
