
     RDKit          3D

 17 17  0  0  0  0  0  0  0  0999 V2000
   -1.9348   -1.6008    0.1120 N   0  0  0  0  0  0  0  0  0  0  0  0
   -0.9271   -0.5826    0.0287 C   0  0  0  0  0  0  0  0  0  0  0  0
   -1.2478    0.7818   -0.1747 C   0  0  0  0  0  0  0  0  0  0  0  0
   -2.5600    1.2417   -0.3087 O   0  0  0  0  0  0  0  0  0  0  0  0
   -0.2192    1.7269   -0.2474 C   0  0  0  0  0  0  0  0  0  0  0  0
    1.1159    1.3417   -0.1219 C   0  0  0  0  0  0  0  0  0  0  0  0
    1.4515   -0.0051    0.0801 C   0  0  0  0  0  0  0  0  0  0  0  0
    0.4209   -0.9588    0.1538 C   0  0  0  0  0  0  0  0  0  0  0  0
    2.8300   -0.3999    0.2093 N   0  0  0  0  0  4  0  0  0  0  0  0
    3.8355    0.5370    0.1366 O   0  0  0  0  0  1  0  0  0  0  0  0
    3.1361   -1.5970    0.3893 O   0  0  0  0  0  0  0  0  0  0  0  0
   -1.6627   -2.5978    0.2636 H   0  0  0  0  0  0  0  0  0  0  0  0
   -2.9536   -1.4052    0.0275 H   0  0  0  0  0  0  0  0  0  0  0  0
   -3.3762    0.6490   -0.2715 H   0  0  0  0  0  0  0  0  0  0  0  0
   -0.4582    2.7716   -0.4028 H   0  0  0  0  0  0  0  0  0  0  0  0
    1.8858    2.0999   -0.1832 H   0  0  0  0  0  0  0  0  0  0  0  0
    0.6639   -2.0026    0.3093 H   0  0  0  0  0  0  0  0  0  0  0  0
  1  2  1  0
  2  3  2  0
  3  4  1  0
  3  5  1  0
  5  6  2  0
  6  7  1  0
  7  8  2  0
  7  9  1  0
  9 10  1  0
  9 11  2  0
  8  2  1  0
  1 12  1  0
  1 13  1  0
  4 14  1  0
  5 15  1  0
  6 16  1  0
  8 17  1  0
M  CHG  2   9   1  10  -1
M  END
