
     RDKit          3D

 25 25  0  0  0  0  0  0  0  0999 V2000
   -2.2787    1.4816   -0.1352 C   0  0  0  0  0  0  0  0  0  0  0  0
   -2.2352   -0.0250    0.1223 C   0  0  0  0  0  0  0  0  0  0  0  0
   -1.1478   -0.7308   -0.7161 C   0  0  0  0  0  0  0  0  0  0  0  0
   -1.2413   -2.2536   -0.5559 C   0  0  0  0  0  0  0  0  0  0  0  0
    0.2477   -0.2416   -0.3671 C   0  0  0  0  0  0  0  0  0  0  0  0
    1.0310    0.4014   -1.3423 C   0  0  0  0  0  0  0  0  0  0  0  0
    2.3131    0.8633   -1.0306 C   0  0  0  0  0  0  0  0  0  0  0  0
    2.8300    0.6896    0.2594 C   0  0  0  0  0  0  0  0  0  0  0  0
    4.1062    1.1462    0.5810 O   0  0  0  0  0  0  0  0  0  0  0  0
    2.0585    0.0522    1.2351 C   0  0  0  0  0  0  0  0  0  0  0  0
    0.7760   -0.4109    0.9273 C   0  0  0  0  0  0  0  0  0  0  0  0
   -1.3330    1.9619    0.1934 H   0  0  0  0  0  0  0  0  0  0  0  0
   -3.1168    1.9314    0.4377 H   0  0  0  0  0  0  0  0  0  0  0  0
   -2.4381    1.6849   -1.2155 H   0  0  0  0  0  0  0  0  0  0  0  0
   -3.2299   -0.4468   -0.1412 H   0  0  0  0  0  0  0  0  0  0  0  0
   -2.0727   -0.2058    1.2067 H   0  0  0  0  0  0  0  0  0  0  0  0
   -1.3597   -0.5144   -1.7876 H   0  0  0  0  0  0  0  0  0  0  0  0
   -2.2263   -2.6153   -0.9208 H   0  0  0  0  0  0  0  0  0  0  0  0
   -1.1289   -2.5523    0.5079 H   0  0  0  0  0  0  0  0  0  0  0  0
   -0.4479   -2.7500   -1.1549 H   0  0  0  0  0  0  0  0  0  0  0  0
    0.6500    0.5487   -2.3452 H   0  0  0  0  0  0  0  0  0  0  0  0
    2.9033    1.3567   -1.7923 H   0  0  0  0  0  0  0  0  0  0  0  0
    4.6900    1.6121   -0.1038 H   0  0  0  0  0  0  0  0  0  0  0  0
    2.4531   -0.0839    2.2340 H   0  0  0  0  0  0  0  0  0  0  0  0
    0.1973   -0.8995    1.7002 H   0  0  0  0  0  0  0  0  0  0  0  0
  1  2  1  0
  2  3  1  0
  3  4  1  0
  3  5  1  0
  5  6  2  0
  6  7  1  0
  7  8  2  0
  8  9  1  0
  8 10  1  0
 10 11  2  0
 11  5  1  0
  1 12  1  0
  1 13  1  0
  1 14  1  0
  2 15  1  0
  2 16  1  0
  3 17  1  0
  4 18  1  0
  4 19  1  0
  4 20  1  0
  6 21  1  0
  7 22  1  0
  9 23  1  0
 10 24  1  0
 11 25  1  0
M  END
