
     RDKit          3D

 14 14  0  0  0  0  0  0  0  0999 V2000
   -3.1488    0.9508    0.0305 O   0  0  0  0  0  1  0  0  0  0  0  0
   -2.3664   -0.1813    0.0267 N   0  0  0  0  0  4  0  0  0  0  0  0
   -2.9247   -1.2981    0.0374 O   0  0  0  0  0  0  0  0  0  0  0  0
   -0.9309   -0.0782    0.0105 C   0  0  0  0  0  0  0  0  0  0  0  0
   -0.1270   -1.2343    0.0065 C   0  0  0  0  0  0  0  0  0  0  0  0
    1.2671   -1.1279   -0.0092 C   0  0  0  0  0  0  0  0  0  0  0  0
    1.8749    0.1307   -0.0211 C   0  0  0  0  0  0  0  0  0  0  0  0
    3.6241    0.2615   -0.0408 Cl  0  0  0  0  0  0  0  0  0  0  0  0
    1.0866    1.2850   -0.0172 C   0  0  0  0  0  0  0  0  0  0  0  0
   -0.3080    1.1832   -0.0015 C   0  0  0  0  0  0  0  0  0  0  0  0
   -0.5758   -2.2193    0.0155 H   0  0  0  0  0  0  0  0  0  0  0  0
    1.8735   -2.0248   -0.0122 H   0  0  0  0  0  0  0  0  0  0  0  0
    1.5529    2.2620   -0.0263 H   0  0  0  0  0  0  0  0  0  0  0  0
   -0.8977    2.0906    0.0012 H   0  0  0  0  0  0  0  0  0  0  0  0
  1  2  1  0
  2  3  2  0
  2  4  1  0
  4  5  2  0
  5  6  1  0
  6  7  2  0
  7  8  1  0
  7  9  1  0
  9 10  2  0
 10  4  1  0
  5 11  1  0
  6 12  1  0
  9 13  1  0
 10 14  1  0
M  CHG  2   1  -1   2   1
M  END
