
     RDKit          3D

 16 16  0  0  0  0  0  0  0  0999 V2000
    2.8390   -0.0324    0.2900 N   0  0  0  0  0  0  0  0  0  0  0  0
    1.4162   -0.0200    0.1463 C   0  0  0  0  0  0  0  0  0  0  0  0
    0.7703    1.1052   -0.3822 C   0  0  0  0  0  0  0  0  0  0  0  0
   -0.6207    1.1187   -0.5234 C   0  0  0  0  0  0  0  0  0  0  0  0
   -1.3881    0.0052   -0.1374 C   0  0  0  0  0  0  0  0  0  0  0  0
   -0.7327   -1.1218    0.3928 C   0  0  0  0  0  0  0  0  0  0  0  0
    0.6583   -1.1328    0.5329 C   0  0  0  0  0  0  0  0  0  0  0  0
   -2.8199    0.0216   -0.2837 N   0  0  0  0  0  4  0  0  0  0  0  0
   -3.4572    1.1255   -0.8026 O   0  0  0  0  0  1  0  0  0  0  0  0
   -3.5064   -0.9641    0.0572 O   0  0  0  0  0  0  0  0  0  0  0  0
    3.4124    0.7926    0.0046 H   0  0  0  0  0  0  0  0  0  0  0  0
    3.3294   -0.8666    0.6830 H   0  0  0  0  0  0  0  0  0  0  0  0
    1.3445    1.9719   -0.6849 H   0  0  0  0  0  0  0  0  0  0  0  0
   -1.0949    2.0004   -0.9344 H   0  0  0  0  0  0  0  0  0  0  0  0
   -1.2953   -1.9944    0.6990 H   0  0  0  0  0  0  0  0  0  0  0  0
    1.1452   -2.0088    0.9428 H   0  0  0  0  0  0  0  0  0  0  0  0
  1  2  1  0
  2  3  2  0
  3  4  1  0
  4  5  2  0
  5  6  1  0
  6  7  2  0
  5  8  1  0
  8  9  1  0
  8 10  2  0
  7  2  1  0
  1 11  1  0
  1 12  1  0
  3 13  1  0
  4 14  1  0
  6 15  1  0
  7 16  1  0
M  CHG  2   8   1   9  -1
M  END
