
     RDKit          3D

 26 26  0  0  0  0  0  0  0  0999 V2000
   -3.8924    0.0166   -0.8497 C   0  0  0  0  0  0  0  0  0  0  0  0
   -3.0432   -1.1591   -0.3674 C   0  0  0  0  0  0  0  0  0  0  0  0
   -1.5353   -0.8873   -0.4778 C   0  0  0  0  0  0  0  0  0  0  0  0
   -1.0452    0.1452    0.5469 C   0  0  0  0  0  0  0  0  0  0  0  0
    0.4517    0.2890    0.4754 C   0  0  0  0  0  0  0  0  0  0  0  0
    1.2806   -0.5238    1.2653 C   0  0  0  0  0  0  0  0  0  0  0  0
    2.6713   -0.4123    1.1745 C   0  0  0  0  0  0  0  0  0  0  0  0
    3.2499    0.5053    0.2866 C   0  0  0  0  0  0  0  0  0  0  0  0
    4.6724    0.6181    0.1936 N   0  0  0  0  0  0  0  0  0  0  0  0
    2.4245    1.3080   -0.5132 C   0  0  0  0  0  0  0  0  0  0  0  0
    1.0337    1.1974   -0.4234 C   0  0  0  0  0  0  0  0  0  0  0  0
   -4.9623   -0.2804   -0.8578 H   0  0  0  0  0  0  0  0  0  0  0  0
   -3.7817    0.8869   -0.1704 H   0  0  0  0  0  0  0  0  0  0  0  0
   -3.6001    0.3109   -1.8801 H   0  0  0  0  0  0  0  0  0  0  0  0
   -3.3120   -1.4076    0.6824 H   0  0  0  0  0  0  0  0  0  0  0  0
   -3.2868   -2.0440   -0.9945 H   0  0  0  0  0  0  0  0  0  0  0  0
   -1.0000   -1.8468   -0.3038 H   0  0  0  0  0  0  0  0  0  0  0  0
   -1.2884   -0.5463   -1.5075 H   0  0  0  0  0  0  0  0  0  0  0  0
   -1.5176    1.1315    0.3518 H   0  0  0  0  0  0  0  0  0  0  0  0
   -1.3437   -0.1694    1.5711 H   0  0  0  0  0  0  0  0  0  0  0  0
    0.8498   -1.2443    1.9496 H   0  0  0  0  0  0  0  0  0  0  0  0
    3.2976   -1.0428    1.7932 H   0  0  0  0  0  0  0  0  0  0  0  0
    5.1128    1.2976   -0.4662 H   0  0  0  0  0  0  0  0  0  0  0  0
    5.2956    0.0232    0.7840 H   0  0  0  0  0  0  0  0  0  0  0  0
    2.8587    2.0161   -1.2077 H   0  0  0  0  0  0  0  0  0  0  0  0
    0.4102    1.8183   -1.0549 H   0  0  0  0  0  0  0  0  0  0  0  0
  1  2  1  0
  2  3  1  0
  3  4  1  0
  4  5  1  0
  5  6  2  0
  6  7  1  0
  7  8  2  0
  8  9  1  0
  8 10  1  0
 10 11  2  0
 11  5  1  0
  1 12  1  0
  1 13  1  0
  1 14  1  0
  2 15  1  0
  2 16  1  0
  3 17  1  0
  3 18  1  0
  4 19  1  0
  4 20  1  0
  6 21  1  0
  7 22  1  0
  9 23  1  0
  9 24  1  0
 10 25  1  0
 11 26  1  0
M  END
