
     RDKit          3D

 13 13  0  0  0  0  0  0  0  0999 V2000
    2.3543    1.0255   -0.0157 O   0  0  0  0  0  0  0  0  0  0  0  0
    1.0662    0.4952   -0.0145 C   0  0  0  0  0  0  0  0  0  0  0  0
   -0.0218    1.3209   -0.3207 C   0  0  0  0  0  0  0  0  0  0  0  0
   -1.3201    0.8006   -0.3229 C   0  0  0  0  0  0  0  0  0  0  0  0
   -1.5351   -0.5486   -0.0187 C   0  0  0  0  0  0  0  0  0  0  0  0
   -3.1634   -1.2008   -0.0216 Cl  0  0  0  0  0  0  0  0  0  0  0  0
   -0.4491   -1.3766    0.2877 C   0  0  0  0  0  0  0  0  0  0  0  0
    0.8494   -0.8567    0.2901 C   0  0  0  0  0  0  0  0  0  0  0  0
    3.1623    0.4538    0.2016 H   0  0  0  0  0  0  0  0  0  0  0  0
    0.1392    2.3652   -0.5566 H   0  0  0  0  0  0  0  0  0  0  0  0
   -2.1565    1.4454   -0.5606 H   0  0  0  0  0  0  0  0  0  0  0  0
   -0.6098   -2.4208    0.5237 H   0  0  0  0  0  0  0  0  0  0  0  0
    1.6844   -1.5032    0.5281 H   0  0  0  0  0  0  0  0  0  0  0  0
  1  2  1  0
  2  3  2  0
  3  4  1  0
  4  5  2  0
  5  6  1  0
  5  7  1  0
  7  8  2  0
  8  2  1  0
  1  9  1  0
  3 10  1  0
  4 11  1  0
  7 12  1  0
  8 13  1  0
M  END
