
     RDKit          3D

 12 11  0  0  0  0  0  0  0  0999 V2000
    2.1111   -0.3229    0.5746 O   0  0  0  0  0  0  0  0  0  0  0  0
    0.9768   -0.2434   -0.2434 C   0  0  0  0  0  0  0  0  0  0  0  0
   -0.2280    0.2137    0.5865 C   0  0  0  0  0  0  0  0  0  0  0  0
   -0.6609   -1.1053    1.9512 Br  0  0  0  0  0  0  0  0  0  0  0  0
   -1.4539    0.5155   -0.2873 C   0  0  0  0  0  0  0  0  0  0  0  0
   -2.0969   -1.0369   -1.2686 Br  0  0  0  0  0  0  0  0  0  0  0  0
    2.8532   -0.6239   -0.0116 H   0  0  0  0  0  0  0  0  0  0  0  0
    1.1643    0.4890   -1.0607 H   0  0  0  0  0  0  0  0  0  0  0  0
    0.7730   -1.2398   -0.6944 H   0  0  0  0  0  0  0  0  0  0  0  0
    0.0487    1.1519    1.1153 H   0  0  0  0  0  0  0  0  0  0  0  0
   -1.2073    1.3160   -1.0169 H   0  0  0  0  0  0  0  0  0  0  0  0
   -2.2801    0.8861    0.3555 H   0  0  0  0  0  0  0  0  0  0  0  0
  1  2  1  0
  2  3  1  0
  3  4  1  0
  3  5  1  0
  5  6  1  0
  1  7  1  0
  2  8  1  0
  2  9  1  0
  3 10  1  0
  5 11  1  0
  5 12  1  0
M  END
