
     RDKit          3D

 19 19  0  0  0  0  0  0  0  0999 V2000
    2.4641   -0.8245    0.7638 C   0  0  0  0  0  0  0  0  0  0  0  0
    1.1640   -0.2226    0.3188 C   0  0  0  0  0  0  0  0  0  0  0  0
    0.0751   -1.0494    0.0014 C   0  0  0  0  0  0  0  0  0  0  0  0
   -1.1517   -0.4903   -0.3890 C   0  0  0  0  0  0  0  0  0  0  0  0
   -1.2974    0.9049   -0.4173 C   0  0  0  0  0  0  0  0  0  0  0  0
   -0.2226    1.7348   -0.0836 C   0  0  0  0  0  0  0  0  0  0  0  0
    1.0058    1.1711    0.2867 C   0  0  0  0  0  0  0  0  0  0  0  0
   -0.3866    3.1178   -0.1187 O   0  0  0  0  0  0  0  0  0  0  0  0
   -2.3209   -1.3777   -0.6987 C   0  0  0  0  0  0  0  0  0  0  0  0
    3.3151   -0.1630    0.4946 H   0  0  0  0  0  0  0  0  0  0  0  0
    2.4483   -0.9644    1.8648 H   0  0  0  0  0  0  0  0  0  0  0  0
    2.6276   -1.8088    0.2755 H   0  0  0  0  0  0  0  0  0  0  0  0
    0.1827   -2.1264    0.0566 H   0  0  0  0  0  0  0  0  0  0  0  0
   -2.2463    1.3485   -0.6939 H   0  0  0  0  0  0  0  0  0  0  0  0
    1.8331    1.8178    0.5531 H   0  0  0  0  0  0  0  0  0  0  0  0
    0.3712    3.7474    0.1185 H   0  0  0  0  0  0  0  0  0  0  0  0
   -2.9987   -0.8917   -1.4326 H   0  0  0  0  0  0  0  0  0  0  0  0
   -1.9776   -2.3401   -1.1345 H   0  0  0  0  0  0  0  0  0  0  0  0
   -2.8854   -1.5835    0.2346 H   0  0  0  0  0  0  0  0  0  0  0  0
  1  2  1  0
  2  3  2  0
  3  4  1  0
  4  5  2  0
  5  6  1  0
  6  7  2  0
  6  8  1  0
  4  9  1  0
  7  2  1  0
  1 10  1  0
  1 11  1  0
  1 12  1  0
  3 13  1  0
  5 14  1  0
  7 15  1  0
  8 16  1  0
  9 17  1  0
  9 18  1  0
  9 19  1  0
M  END
