
     RDKit          3D

 12 12  0  0  0  0  0  0  0  0999 V2000
    3.2365   -0.0326    0.1801 Br  0  0  0  0  0  0  0  0  0  0  0  0
    1.3298   -0.0134    0.0740 C   0  0  0  0  0  0  0  0  0  0  0  0
    0.6407    1.2053    0.0606 C   0  0  0  0  0  0  0  0  0  0  0  0
   -0.7559    1.2187   -0.0171 C   0  0  0  0  0  0  0  0  0  0  0  0
   -1.4650    0.0148   -0.0815 C   0  0  0  0  0  0  0  0  0  0  0  0
   -0.7775   -1.2033   -0.0682 C   0  0  0  0  0  0  0  0  0  0  0  0
    0.6191   -1.2180    0.0095 C   0  0  0  0  0  0  0  0  0  0  0  0
    1.1854    2.1393    0.1103 H   0  0  0  0  0  0  0  0  0  0  0  0
   -1.2881    2.1611   -0.0274 H   0  0  0  0  0  0  0  0  0  0  0  0
   -2.5456    0.0257   -0.1416 H   0  0  0  0  0  0  0  0  0  0  0  0
   -1.3264   -2.1348   -0.1181 H   0  0  0  0  0  0  0  0  0  0  0  0
    1.1470   -2.1629    0.0195 H   0  0  0  0  0  0  0  0  0  0  0  0
  1  2  1  0
  2  3  2  0
  3  4  1  0
  4  5  2  0
  5  6  1  0
  6  7  2  0
  7  2  1  0
  3  8  1  0
  4  9  1  0
  5 10  1  0
  6 11  1  0
  7 12  1  0
M  END
