
     RDKit          3D

 16 15  0  0  0  0  0  0  0  0999 V2000
    1.6072   -0.3428    0.7613 C   0  0  0  0  0  0  0  0  0  0  0  0
    1.0507   -0.5862   -0.6407 C   0  0  0  0  0  0  0  0  0  0  0  0
   -0.1162    0.3497   -0.9990 C   0  0  0  0  0  0  0  0  0  0  0  0
   -1.4135    0.0334   -0.2388 C   0  0  0  0  0  0  0  0  0  0  0  0
   -1.3651    0.5559    1.1236 N   0  0  0  0  0  0  0  0  0  0  0  0
    2.5458   -0.9219    0.8908 H   0  0  0  0  0  0  0  0  0  0  0  0
    1.8335    0.7343    0.9108 H   0  0  0  0  0  0  0  0  0  0  0  0
    0.8868   -0.6841    1.5328 H   0  0  0  0  0  0  0  0  0  0  0  0
    0.7355   -1.6478   -0.7375 H   0  0  0  0  0  0  0  0  0  0  0  0
    1.8702   -0.4143   -1.3719 H   0  0  0  0  0  0  0  0  0  0  0  0
   -0.3216    0.2289   -2.0850 H   0  0  0  0  0  0  0  0  0  0  0  0
    0.1768    1.4109   -0.8418 H   0  0  0  0  0  0  0  0  0  0  0  0
   -2.2710    0.4949   -0.7781 H   0  0  0  0  0  0  0  0  0  0  0  0
   -1.5831   -1.0655   -0.2139 H   0  0  0  0  0  0  0  0  0  0  0  0
   -1.3966    1.6004    1.0759 H   0  0  0  0  0  0  0  0  0  0  0  0
   -2.2393    0.2542    1.6116 H   0  0  0  0  0  0  0  0  0  0  0  0
  1  2  1  0
  2  3  1  0
  3  4  1  0
  4  5  1  0
  1  6  1  0
  1  7  1  0
  1  8  1  0
  2  9  1  0
  2 10  1  0
  3 11  1  0
  3 12  1  0
  4 13  1  0
  4 14  1  0
  5 15  1  0
  5 16  1  0
M  END
