
     RDKit          3D

 20 19  0  0  0  0  0  0  0  0999 V2000
   -1.3324    0.2918    1.3778 C   0  0  0  0  0  0  0  0  0  0  0  0
   -1.1399    0.1858   -0.1406 C   0  0  0  0  0  0  0  0  0  0  0  0
   -2.4934    0.0055   -0.8371 C   0  0  0  0  0  0  0  0  0  0  0  0
   -0.1949   -0.9766   -0.4990 C   0  0  0  0  0  0  0  0  0  0  0  0
    1.0949   -0.7912    0.0835 O   0  0  0  0  0  0  0  0  0  0  0  0
    2.0382    0.1191   -0.4058 C   0  0  0  0  0  0  0  0  0  0  0  0
    3.3261    0.3031    0.3219 C   0  0  0  0  0  0  0  0  0  0  0  0
    1.7983    0.8097   -1.4333 O   0  0  0  0  0  0  0  0  0  0  0  0
   -1.7686   -0.6458    1.7847 H   0  0  0  0  0  0  0  0  0  0  0  0
   -2.0113    1.1372    1.6195 H   0  0  0  0  0  0  0  0  0  0  0  0
   -0.3592    0.4822    1.8780 H   0  0  0  0  0  0  0  0  0  0  0  0
   -0.6948    1.1380   -0.5027 H   0  0  0  0  0  0  0  0  0  0  0  0
   -2.9842   -0.9345   -0.5045 H   0  0  0  0  0  0  0  0  0  0  0  0
   -3.1620    0.8615   -0.6035 H   0  0  0  0  0  0  0  0  0  0  0  0
   -2.3551   -0.0321   -1.9388 H   0  0  0  0  0  0  0  0  0  0  0  0
   -0.6185   -1.9307   -0.1178 H   0  0  0  0  0  0  0  0  0  0  0  0
   -0.0961   -1.0720   -1.6029 H   0  0  0  0  0  0  0  0  0  0  0  0
    4.1523    0.4698   -0.4011 H   0  0  0  0  0  0  0  0  0  0  0  0
    3.2465    1.1802    0.9971 H   0  0  0  0  0  0  0  0  0  0  0  0
    3.5540   -0.6009    0.9245 H   0  0  0  0  0  0  0  0  0  0  0  0
  1  2  1  0
  2  3  1  0
  2  4  1  0
  4  5  1  0
  5  6  1  0
  6  7  1  0
  6  8  2  0
  1  9  1  0
  1 10  1  0
  1 11  1  0
  2 12  1  0
  3 13  1  0
  3 14  1  0
  3 15  1  0
  4 16  1  0
  4 17  1  0
  7 18  1  0
  7 19  1  0
  7 20  1  0
M  END
