
     RDKit          3D

 30 29  0  0  0  0  0  0  0  0999 V2000
   -4.7153    1.0749    0.7799 C   0  0  0  0  0  0  0  0  0  0  0  0
   -3.6556    0.0276    0.4499 C   0  0  0  0  0  0  0  0  0  0  0  0
   -2.4089    0.6785   -0.1670 C   0  0  0  0  0  0  0  0  0  0  0  0
   -1.3731   -0.3544   -0.6384 C   0  0  0  0  0  0  0  0  0  0  0  0
   -0.6578   -1.0515    0.5320 C   0  0  0  0  0  0  0  0  0  0  0  0
    0.4362   -2.0157    0.0481 C   0  0  0  0  0  0  0  0  0  0  0  0
    1.5842   -1.2988   -0.6061 C   0  0  0  0  0  0  0  0  0  0  0  0
    2.4304   -0.5415    0.1007 C   0  0  0  0  0  0  0  0  0  0  0  0
    3.5643    0.1635   -0.5174 C   0  0  0  0  0  0  0  0  0  0  0  0
    3.7778    0.0775   -1.7587 O   0  0  0  0  0  0  0  0  0  0  0  0
    4.4031    0.9332    0.2931 O   0  0  0  0  0  0  0  0  0  0  0  0
    5.5204    1.6485   -0.2205 C   0  0  0  0  0  0  0  0  0  0  0  0
   -4.3133    1.8154    1.5040 H   0  0  0  0  0  0  0  0  0  0  0  0
   -5.5997    0.5792    1.2328 H   0  0  0  0  0  0  0  0  0  0  0  0
   -5.0385    1.6021   -0.1430 H   0  0  0  0  0  0  0  0  0  0  0  0
   -3.3855   -0.5031    1.3870 H   0  0  0  0  0  0  0  0  0  0  0  0
   -4.0887   -0.7082   -0.2620 H   0  0  0  0  0  0  0  0  0  0  0  0
   -2.7188    1.2795   -1.0501 H   0  0  0  0  0  0  0  0  0  0  0  0
   -1.9420    1.3733    0.5654 H   0  0  0  0  0  0  0  0  0  0  0  0
   -1.8643   -1.1119   -1.2877 H   0  0  0  0  0  0  0  0  0  0  0  0
   -0.6204    0.1805   -1.2572 H   0  0  0  0  0  0  0  0  0  0  0  0
   -1.3950   -1.6437    1.1137 H   0  0  0  0  0  0  0  0  0  0  0  0
   -0.2177   -0.2934    1.2158 H   0  0  0  0  0  0  0  0  0  0  0  0
    0.8175   -2.6030    0.9116 H   0  0  0  0  0  0  0  0  0  0  0  0
   -0.0030   -2.7374   -0.6744 H   0  0  0  0  0  0  0  0  0  0  0  0
    1.7267   -1.4302   -1.6722 H   0  0  0  0  0  0  0  0  0  0  0  0
    2.2880   -0.4351    1.1695 H   0  0  0  0  0  0  0  0  0  0  0  0
    6.0268    2.1798    0.6112 H   0  0  0  0  0  0  0  0  0  0  0  0
    6.2402    0.9442   -0.6889 H   0  0  0  0  0  0  0  0  0  0  0  0
    5.1822    2.3942   -0.9710 H   0  0  0  0  0  0  0  0  0  0  0  0
  1  2  1  0
  2  3  1  0
  3  4  1  0
  4  5  1  0
  5  6  1  0
  6  7  1  0
  7  8  2  0
  8  9  1  0
  9 10  2  0
  9 11  1  0
 11 12  1  0
  1 13  1  0
  1 14  1  0
  1 15  1  0
  2 16  1  0
  2 17  1  0
  3 18  1  0
  3 19  1  0
  4 20  1  0
  4 21  1  0
  5 22  1  0
  5 23  1  0
  6 24  1  0
  6 25  1  0
  7 26  1  0
  8 27  1  0
 12 28  1  0
 12 29  1  0
 12 30  1  0
M  END
