
     RDKit          3D

 42 41  0  0  0  0  0  0  0  0999 V2000
   -6.4151   -0.2617    1.0768 C   0  0  0  0  0  0  0  0  0  0  0  0
   -5.2624   -1.2059    0.7354 C   0  0  0  0  0  0  0  0  0  0  0  0
   -4.1039   -0.4972    0.0161 C   0  0  0  0  0  0  0  0  0  0  0  0
   -3.2942    0.4113    0.9574 C   0  0  0  0  0  0  0  0  0  0  0  0
   -2.1410    1.1292    0.2376 C   0  0  0  0  0  0  0  0  0  0  0  0
   -0.9750    0.1881   -0.1011 C   0  0  0  0  0  0  0  0  0  0  0  0
    0.2058    0.9683   -0.6916 C   0  0  0  0  0  0  0  0  0  0  0  0
    1.3678    0.0302   -1.0397 C   0  0  0  0  0  0  0  0  0  0  0  0
    2.5523    0.8149   -1.6226 C   0  0  0  0  0  0  0  0  0  0  0  0
    3.7348   -0.0939   -2.0190 C   0  0  0  0  0  0  0  0  0  0  0  0
    4.8541   -0.1599   -0.9615 C   0  0  0  0  0  0  0  0  0  0  0  0
    4.5442   -1.1061    0.2199 C   0  0  0  0  0  0  0  0  0  0  0  0
    4.4644   -0.3722    1.5617 C   0  0  0  0  0  0  0  0  0  0  0  0
    3.4042    0.5421    1.5572 O   0  0  0  0  0  0  0  0  0  0  0  0
   -6.7584    0.2780    0.1687 H   0  0  0  0  0  0  0  0  0  0  0  0
   -7.2662   -0.8505    1.4792 H   0  0  0  0  0  0  0  0  0  0  0  0
   -6.1090    0.4720    1.8505 H   0  0  0  0  0  0  0  0  0  0  0  0
   -5.6549   -2.0028    0.0669 H   0  0  0  0  0  0  0  0  0  0  0  0
   -4.8951   -1.6973    1.6625 H   0  0  0  0  0  0  0  0  0  0  0  0
   -3.4375   -1.2836   -0.3958 H   0  0  0  0  0  0  0  0  0  0  0  0
   -4.4976    0.0941   -0.8396 H   0  0  0  0  0  0  0  0  0  0  0  0
   -3.9641    1.1923    1.3745 H   0  0  0  0  0  0  0  0  0  0  0  0
   -2.8958   -0.1814    1.8099 H   0  0  0  0  0  0  0  0  0  0  0  0
   -2.5185    1.6146   -0.6892 H   0  0  0  0  0  0  0  0  0  0  0  0
   -1.7670    1.9330    0.9092 H   0  0  0  0  0  0  0  0  0  0  0  0
   -1.3073   -0.5711   -0.8405 H   0  0  0  0  0  0  0  0  0  0  0  0
   -0.6424   -0.3361    0.8218 H   0  0  0  0  0  0  0  0  0  0  0  0
   -0.1274    1.4996   -1.6105 H   0  0  0  0  0  0  0  0  0  0  0  0
    0.5536    1.7238    0.0474 H   0  0  0  0  0  0  0  0  0  0  0  0
    1.6801   -0.5061   -0.1220 H   0  0  0  0  0  0  0  0  0  0  0  0
    1.0223   -0.7201   -1.7846 H   0  0  0  0  0  0  0  0  0  0  0  0
    2.8810    1.6001   -0.9077 H   0  0  0  0  0  0  0  0  0  0  0  0
    2.1975    1.3401   -2.5371 H   0  0  0  0  0  0  0  0  0  0  0  0
    4.1863    0.3302   -2.9430 H   0  0  0  0  0  0  0  0  0  0  0  0
    3.3899   -1.1168   -2.2868 H   0  0  0  0  0  0  0  0  0  0  0  0
    5.7678   -0.5393   -1.4702 H   0  0  0  0  0  0  0  0  0  0  0  0
    5.1089    0.8654   -0.6132 H   0  0  0  0  0  0  0  0  0  0  0  0
    3.6129   -1.6859    0.0528 H   0  0  0  0  0  0  0  0  0  0  0  0
    5.3610   -1.8572    0.2973 H   0  0  0  0  0  0  0  0  0  0  0  0
    4.3063   -1.1200    2.3705 H   0  0  0  0  0  0  0  0  0  0  0  0
    5.4238    0.1584    1.7551 H   0  0  0  0  0  0  0  0  0  0  0  0
    3.4137    0.9796    2.4477 H   0  0  0  0  0  0  0  0  0  0  0  0
  1  2  1  0
  2  3  1  0
  3  4  1  0
  4  5  1  0
  5  6  1  0
  6  7  1  0
  7  8  1  0
  8  9  1  0
  9 10  1  0
 10 11  1  0
 11 12  1  0
 12 13  1  0
 13 14  1  0
  1 15  1  0
  1 16  1  0
  1 17  1  0
  2 18  1  0
  2 19  1  0
  3 20  1  0
  3 21  1  0
  4 22  1  0
  4 23  1  0
  5 24  1  0
  5 25  1  0
  6 26  1  0
  6 27  1  0
  7 28  1  0
  7 29  1  0
  8 30  1  0
  8 31  1  0
  9 32  1  0
  9 33  1  0
 10 34  1  0
 10 35  1  0
 11 36  1  0
 11 37  1  0
 12 38  1  0
 12 39  1  0
 13 40  1  0
 13 41  1  0
 14 42  1  0
M  END
