
     RDKit          3D

 16 16  0  0  0  0  0  0  0  0999 V2000
   -2.8383    0.1117    0.0972 N   0  0  0  0  0  0  0  0  0  0  0  0
   -1.4071    0.0521    0.0523 C   0  0  0  0  0  0  0  0  0  0  0  0
   -0.6732    0.7636   -0.9177 C   0  0  0  0  0  0  0  0  0  0  0  0
   -1.4667    1.7646   -2.1281 Cl  0  0  0  0  0  0  0  0  0  0  0  0
    0.7249    0.6837   -0.9338 C   0  0  0  0  0  0  0  0  0  0  0  0
    1.4116   -0.1004    0.0088 C   0  0  0  0  0  0  0  0  0  0  0  0
    0.6720   -0.8068    0.9729 C   0  0  0  0  0  0  0  0  0  0  0  0
   -0.7224   -0.7300    0.9927 C   0  0  0  0  0  0  0  0  0  0  0  0
    2.8489   -0.1766   -0.0153 N   0  0  0  0  0  4  0  0  0  0  0  0
    3.5705    0.5162   -0.9605 O   0  0  0  0  0  1  0  0  0  0  0  0
    3.4641   -0.8717    0.8198 O   0  0  0  0  0  0  0  0  0  0  0  0
   -3.3894    0.6804   -0.5820 H   0  0  0  0  0  0  0  0  0  0  0  0
   -3.3685   -0.4213    0.8223 H   0  0  0  0  0  0  0  0  0  0  0  0
    1.2736    1.2365   -1.6857 H   0  0  0  0  0  0  0  0  0  0  0  0
    1.1717   -1.4193    1.7124 H   0  0  0  0  0  0  0  0  0  0  0  0
   -1.2716   -1.2828    1.7446 H   0  0  0  0  0  0  0  0  0  0  0  0
  1  2  1  0
  2  3  2  0
  3  4  1  0
  3  5  1  0
  5  6  2  0
  6  7  1  0
  7  8  2  0
  6  9  1  0
  9 10  1  0
  9 11  2  0
  8  2  1  0
  1 12  1  0
  1 13  1  0
  5 14  1  0
  7 15  1  0
  8 16  1  0
M  CHG  2   9   1  10  -1
M  END
