
     RDKit          3D

 18 18  0  0  0  0  0  0  0  0999 V2000
    3.5380   -0.3775   -0.1041 C   0  0  0  0  0  0  0  0  0  0  0  0
    2.1299   -0.2825    0.3761 C   0  0  0  0  0  0  0  0  0  0  0  0
    1.8508   -0.6392    1.5528 O   0  0  0  0  0  0  0  0  0  0  0  0
    1.1631    0.3043   -0.4504 O   0  0  0  0  0  0  0  0  0  0  0  0
   -0.2240    0.2409   -0.2490 C   0  0  0  0  0  0  0  0  0  0  0  0
   -1.0195    1.2776   -0.7548 C   0  0  0  0  0  0  0  0  0  0  0  0
   -2.4074    1.2529   -0.5866 C   0  0  0  0  0  0  0  0  0  0  0  0
   -3.0127    0.1838    0.0789 C   0  0  0  0  0  0  0  0  0  0  0  0
   -2.2312   -0.8653    0.5699 C   0  0  0  0  0  0  0  0  0  0  0  0
   -0.8425   -0.8432    0.4042 C   0  0  0  0  0  0  0  0  0  0  0  0
    3.5551   -0.4532   -1.2115 H   0  0  0  0  0  0  0  0  0  0  0  0
    4.0282   -1.2773    0.3239 H   0  0  0  0  0  0  0  0  0  0  0  0
    4.0973    0.5287    0.2082 H   0  0  0  0  0  0  0  0  0  0  0  0
   -0.5585    2.1089   -1.2730 H   0  0  0  0  0  0  0  0  0  0  0  0
   -3.0136    2.0617   -0.9736 H   0  0  0  0  0  0  0  0  0  0  0  0
   -4.0873    0.1643    0.2068 H   0  0  0  0  0  0  0  0  0  0  0  0
   -2.7026   -1.7007    1.0714 H   0  0  0  0  0  0  0  0  0  0  0  0
   -0.2632   -1.6843    0.7590 H   0  0  0  0  0  0  0  0  0  0  0  0
  1  2  1  0
  2  3  2  0
  2  4  1  0
  4  5  1  0
  5  6  2  0
  6  7  1  0
  7  8  2  0
  8  9  1  0
  9 10  2  0
 10  5  1  0
  1 11  1  0
  1 12  1  0
  1 13  1  0
  6 14  1  0
  7 15  1  0
  8 16  1  0
  9 17  1  0
 10 18  1  0
M  END
