
     RDKit          3D

 26 25  0  0  0  0  0  0  0  0999 V2000
   -4.2706    0.7309   -0.5275 C   0  0  0  0  0  0  0  0  0  0  0  0
   -3.6014    1.5262    0.5875 C   0  0  0  0  0  0  0  0  0  0  0  0
   -2.2250    1.1712    0.7014 O   0  0  0  0  0  0  0  0  0  0  0  0
   -1.7829   -0.0184    1.2913 C   0  0  0  0  0  0  0  0  0  0  0  0
   -2.6021   -0.8291    1.8039 O   0  0  0  0  0  0  0  0  0  0  0  0
   -0.3246   -0.3483    1.2735 C   0  0  0  0  0  0  0  0  0  0  0  0
    0.0435   -1.0608   -0.0285 C   0  0  0  0  0  0  0  0  0  0  0  0
    1.5048   -1.3771   -0.0547 C   0  0  0  0  0  0  0  0  0  0  0  0
    1.9131   -2.4917    0.3722 O   0  0  0  0  0  0  0  0  0  0  0  0
    2.4082   -0.4135   -0.5117 O   0  0  0  0  0  0  0  0  0  0  0  0
    3.8146   -0.6327   -0.5402 C   0  0  0  0  0  0  0  0  0  0  0  0
    4.5117    0.6028   -1.0865 C   0  0  0  0  0  0  0  0  0  0  0  0
   -4.2588   -0.3535   -0.2910 H   0  0  0  0  0  0  0  0  0  0  0  0
   -5.3251    1.0598   -0.6397 H   0  0  0  0  0  0  0  0  0  0  0  0
   -3.7364    0.9002   -1.4864 H   0  0  0  0  0  0  0  0  0  0  0  0
   -4.1271    1.3568    1.5524 H   0  0  0  0  0  0  0  0  0  0  0  0
   -3.6685    2.6074    0.3438 H   0  0  0  0  0  0  0  0  0  0  0  0
   -0.0797   -0.9974    2.1431 H   0  0  0  0  0  0  0  0  0  0  0  0
    0.2599    0.5930    1.3670 H   0  0  0  0  0  0  0  0  0  0  0  0
   -0.5421   -2.0018   -0.1239 H   0  0  0  0  0  0  0  0  0  0  0  0
   -0.2010   -0.4104   -0.8966 H   0  0  0  0  0  0  0  0  0  0  0  0
    4.0458   -1.5034   -1.1916 H   0  0  0  0  0  0  0  0  0  0  0  0
    4.1835   -0.8377    0.4883 H   0  0  0  0  0  0  0  0  0  0  0  0
    4.2940    1.4786   -0.4392 H   0  0  0  0  0  0  0  0  0  0  0  0
    5.6091    0.4349   -1.1096 H   0  0  0  0  0  0  0  0  0  0  0  0
    4.1570    0.8138   -2.1176 H   0  0  0  0  0  0  0  0  0  0  0  0
  1  2  1  0
  2  3  1  0
  3  4  1  0
  4  5  2  0
  4  6  1  0
  6  7  1  0
  7  8  1  0
  8  9  2  0
  8 10  1  0
 10 11  1  0
 11 12  1  0
  1 13  1  0
  1 14  1  0
  1 15  1  0
  2 16  1  0
  2 17  1  0
  6 18  1  0
  6 19  1  0
  7 20  1  0
  7 21  1  0
 11 22  1  0
 11 23  1  0
 12 24  1  0
 12 25  1  0
 12 26  1  0
M  END
