
     RDKit          3D

 25 24  0  0  0  0  0  0  0  0999 V2000
    3.9190   -0.1355    0.3746 C   0  0  0  0  0  0  0  0  0  0  0  0
    2.7471   -0.7345   -0.3978 C   0  0  0  0  0  0  0  0  0  0  0  0
    1.4507    0.0370   -0.1245 C   0  0  0  0  0  0  0  0  0  0  0  0
    0.2733   -0.5776   -0.8962 C   0  0  0  0  0  0  0  0  0  0  0  0
   -1.0186    0.2438   -0.7604 C   0  0  0  0  0  0  0  0  0  0  0  0
   -1.6419    0.1394    0.6425 C   0  0  0  0  0  0  0  0  0  0  0  0
   -2.9804    0.8854    0.7356 C   0  0  0  0  0  0  0  0  0  0  0  0
   -4.0548    0.2214   -0.0753 C   0  0  0  0  0  0  0  0  0  0  0  0
   -4.4455   -0.8986    0.2130 O   0  0  0  0  0  0  0  0  0  0  0  0
    3.7235   -0.1787    1.4673 H   0  0  0  0  0  0  0  0  0  0  0  0
    4.8421   -0.7127    0.1562 H   0  0  0  0  0  0  0  0  0  0  0  0
    4.0808    0.9211    0.0721 H   0  0  0  0  0  0  0  0  0  0  0  0
    2.9807   -0.7036   -1.4845 H   0  0  0  0  0  0  0  0  0  0  0  0
    2.6219   -1.7969   -0.0945 H   0  0  0  0  0  0  0  0  0  0  0  0
    1.2400    0.0080    0.9657 H   0  0  0  0  0  0  0  0  0  0  0  0
    1.5833    1.0973   -0.4335 H   0  0  0  0  0  0  0  0  0  0  0  0
    0.5375   -0.6227   -1.9757 H   0  0  0  0  0  0  0  0  0  0  0  0
    0.0955   -1.6194   -0.5499 H   0  0  0  0  0  0  0  0  0  0  0  0
   -0.8157    1.3092   -1.0065 H   0  0  0  0  0  0  0  0  0  0  0  0
   -1.7441   -0.1408   -1.5096 H   0  0  0  0  0  0  0  0  0  0  0  0
   -0.9520    0.5908    1.3861 H   0  0  0  0  0  0  0  0  0  0  0  0
   -1.7879   -0.9282    0.9180 H   0  0  0  0  0  0  0  0  0  0  0  0
   -3.3062    0.9187    1.7975 H   0  0  0  0  0  0  0  0  0  0  0  0
   -2.8506    1.9338    0.3897 H   0  0  0  0  0  0  0  0  0  0  0  0
   -4.4979    0.7432   -0.9171 H   0  0  0  0  0  0  0  0  0  0  0  0
  1  2  1  0
  2  3  1  0
  3  4  1  0
  4  5  1  0
  5  6  1  0
  6  7  1  0
  7  8  1  0
  8  9  2  0
  1 10  1  0
  1 11  1  0
  1 12  1  0
  2 13  1  0
  2 14  1  0
  3 15  1  0
  3 16  1  0
  4 17  1  0
  4 18  1  0
  5 19  1  0
  5 20  1  0
  6 21  1  0
  6 22  1  0
  7 23  1  0
  7 24  1  0
  8 25  1  0
M  END
