
     RDKit          3D

 21 21  0  0  0  0  0  0  0  0999 V2000
   -1.7385    0.7662   -1.2441 C   0  0  0  0  0  0  0  0  0  0  0  0
   -1.2551   -0.3692   -0.3252 C   0  0  0  0  0  0  0  0  0  0  0  0
   -1.4822   -1.6125   -0.9493 O   0  0  0  0  0  0  0  0  0  0  0  0
   -2.0116   -0.3372    0.9458 C   0  0  0  0  0  0  0  0  0  0  0  0
   -2.6289   -0.3119    1.9814 C   0  0  0  0  0  0  0  0  0  0  0  0
    0.2352   -0.1876   -0.0457 C   0  0  0  0  0  0  0  0  0  0  0  0
    0.6829    0.8429    0.8101 C   0  0  0  0  0  0  0  0  0  0  0  0
    2.0478    1.0390    1.0384 C   0  0  0  0  0  0  0  0  0  0  0  0
    2.9880    0.2247    0.4059 C   0  0  0  0  0  0  0  0  0  0  0  0
    2.5658   -0.7824   -0.4630 C   0  0  0  0  0  0  0  0  0  0  0  0
    1.2020   -0.9845   -0.6963 C   0  0  0  0  0  0  0  0  0  0  0  0
   -1.5713    1.7588   -0.7722 H   0  0  0  0  0  0  0  0  0  0  0  0
   -2.8243    0.6623   -1.4582 H   0  0  0  0  0  0  0  0  0  0  0  0
   -1.1885    0.7357   -2.2092 H   0  0  0  0  0  0  0  0  0  0  0  0
   -2.4543   -1.6938   -1.1416 H   0  0  0  0  0  0  0  0  0  0  0  0
   -3.1703   -0.2893    2.8903 H   0  0  0  0  0  0  0  0  0  0  0  0
   -0.0257    1.4987    1.3002 H   0  0  0  0  0  0  0  0  0  0  0  0
    2.3766    1.8277    1.7027 H   0  0  0  0  0  0  0  0  0  0  0  0
    4.0445    0.3797    0.5825 H   0  0  0  0  0  0  0  0  0  0  0  0
    3.2971   -1.4049   -0.9625 H   0  0  0  0  0  0  0  0  0  0  0  0
    0.9108   -1.7623   -1.3898 H   0  0  0  0  0  0  0  0  0  0  0  0
  1  2  1  0
  2  3  1  0
  2  4  1  0
  4  5  3  0
  2  6  1  0
  6  7  2  0
  7  8  1  0
  8  9  2  0
  9 10  1  0
 10 11  2  0
 11  6  1  0
  1 12  1  0
  1 13  1  0
  1 14  1  0
  3 15  1  0
  5 16  1  0
  7 17  1  0
  8 18  1  0
  9 19  1  0
 10 20  1  0
 11 21  1  0
M  END
