
     RDKit          3D

 17 17  0  0  0  0  0  0  0  0999 V2000
    2.9741    0.5811   -0.2775 C   0  0  0  0  0  0  0  0  0  0  0  0
    2.0413    0.0524    0.6594 O   0  0  0  0  0  0  0  0  0  0  0  0
    0.6638   -0.0680    0.4231 C   0  0  0  0  0  0  0  0  0  0  0  0
   -0.1406   -0.6071    1.4350 C   0  0  0  0  0  0  0  0  0  0  0  0
   -1.5190   -0.7474    1.2472 C   0  0  0  0  0  0  0  0  0  0  0  0
   -2.1087   -0.3495    0.0435 C   0  0  0  0  0  0  0  0  0  0  0  0
   -3.4831   -0.4948   -0.1308 O   0  0  0  0  0  0  0  0  0  0  0  0
   -1.3121    0.1909   -0.9747 C   0  0  0  0  0  0  0  0  0  0  0  0
    0.0669    0.3321   -0.7888 C   0  0  0  0  0  0  0  0  0  0  0  0
    2.9784   -0.0353   -1.2013 H   0  0  0  0  0  0  0  0  0  0  0  0
    2.7159    1.6334   -0.5210 H   0  0  0  0  0  0  0  0  0  0  0  0
    3.9890    0.5586    0.1693 H   0  0  0  0  0  0  0  0  0  0  0  0
    0.3053   -0.9186    2.3711 H   0  0  0  0  0  0  0  0  0  0  0  0
   -2.1292   -1.1657    2.0376 H   0  0  0  0  0  0  0  0  0  0  0  0
   -3.9400   -0.2159   -0.9912 H   0  0  0  0  0  0  0  0  0  0  0  0
   -1.7602    0.5016   -1.9099 H   0  0  0  0  0  0  0  0  0  0  0  0
    0.6581    0.7521   -1.5910 H   0  0  0  0  0  0  0  0  0  0  0  0
  1  2  1  0
  2  3  1  0
  3  4  2  0
  4  5  1  0
  5  6  2  0
  6  7  1  0
  6  8  1  0
  8  9  2  0
  9  3  1  0
  1 10  1  0
  1 11  1  0
  1 12  1  0
  4 13  1  0
  5 14  1  0
  7 15  1  0
  8 16  1  0
  9 17  1  0
M  END
