
     RDKit          3D

 22 24  0  0  0  0  0  0  0  0999 V2000
   -0.1353    1.0906   -0.8376 O   0  0  0  0  0  0  0  0  0  0  0  0
   -1.2867    0.3932   -0.4519 C   0  0  0  0  0  0  0  0  0  0  0  0
   -2.4862    1.0950   -0.2845 C   0  0  0  0  0  0  0  0  0  0  0  0
   -3.6115    0.4488    0.2368 C   0  0  0  0  0  0  0  0  0  0  0  0
   -3.5433   -0.9031    0.5866 C   0  0  0  0  0  0  0  0  0  0  0  0
   -2.3598   -1.6195    0.3850 C   0  0  0  0  0  0  0  0  0  0  0  0
   -1.2375   -0.9808   -0.1556 C   0  0  0  0  0  0  0  0  0  0  0  0
    0.1849   -1.9568   -0.6466 S   0  0  0  0  0  0  0  0  0  0  0  0
    1.4008   -0.7079   -0.2243 C   0  0  0  0  0  0  0  0  0  0  0  0
    2.6563   -1.1007    0.2545 C   0  0  0  0  0  0  0  0  0  0  0  0
    3.6771   -0.1562    0.3987 C   0  0  0  0  0  0  0  0  0  0  0  0
    3.4492    1.1792    0.0531 C   0  0  0  0  0  0  0  0  0  0  0  0
    2.1902    1.5787   -0.4062 C   0  0  0  0  0  0  0  0  0  0  0  0
    1.1527    0.6456   -0.5154 C   0  0  0  0  0  0  0  0  0  0  0  0
   -2.5339    2.1507   -0.5193 H   0  0  0  0  0  0  0  0  0  0  0  0
   -4.5320    0.9992    0.3824 H   0  0  0  0  0  0  0  0  0  0  0  0
   -4.4142   -1.4009    0.9930 H   0  0  0  0  0  0  0  0  0  0  0  0
   -2.3296   -2.6781    0.6101 H   0  0  0  0  0  0  0  0  0  0  0  0
    2.8550   -2.1417    0.4752 H   0  0  0  0  0  0  0  0  0  0  0  0
    4.6512   -0.4631    0.7571 H   0  0  0  0  0  0  0  0  0  0  0  0
    4.2439    1.9070    0.1541 H   0  0  0  0  0  0  0  0  0  0  0  0
    2.0088    2.6206   -0.6375 H   0  0  0  0  0  0  0  0  0  0  0  0
  1  2  1  0
  2  3  2  0
  3  4  1  0
  4  5  2  0
  5  6  1  0
  6  7  2  0
  7  8  1  0
  8  9  1  0
  9 10  2  0
 10 11  1  0
 11 12  2  0
 12 13  1  0
 13 14  2  0
 14  1  1  0
  7  2  1  0
 14  9  1  0
  3 15  1  0
  4 16  1  0
  5 17  1  0
  6 18  1  0
 10 19  1  0
 11 20  1  0
 12 21  1  0
 13 22  1  0
M  END
