
     RDKit          3D

 24 25  0  0  0  0  0  0  0  0999 V2000
    2.5888    2.3241    0.4302 F   0  0  0  0  0  0  0  0  0  0  0  0
    2.5398    1.0172    0.0664 C   0  0  0  0  0  0  0  0  0  0  0  0
    3.7085    0.2509    0.1316 C   0  0  0  0  0  0  0  0  0  0  0  0
    3.6844   -1.0998   -0.2228 C   0  0  0  0  0  0  0  0  0  0  0  0
    2.4919   -1.6890   -0.6472 C   0  0  0  0  0  0  0  0  0  0  0  0
    1.3200   -0.9301   -0.7146 C   0  0  0  0  0  0  0  0  0  0  0  0
    1.3282    0.4289   -0.3480 C   0  0  0  0  0  0  0  0  0  0  0  0
    0.0888    1.2389   -0.4401 C   0  0  0  0  0  0  0  0  0  0  0  0
    0.1712    2.4363   -0.8283 O   0  0  0  0  0  0  0  0  0  0  0  0
   -1.2453    0.6852   -0.0998 C   0  0  0  0  0  0  0  0  0  0  0  0
   -1.3869   -0.3167    0.8793 C   0  0  0  0  0  0  0  0  0  0  0  0
   -2.6519   -0.8182    1.2008 C   0  0  0  0  0  0  0  0  0  0  0  0
   -3.7874   -0.3203    0.5579 C   0  0  0  0  0  0  0  0  0  0  0  0
   -3.6608    0.6843   -0.4042 C   0  0  0  0  0  0  0  0  0  0  0  0
   -2.3981    1.1895   -0.7292 C   0  0  0  0  0  0  0  0  0  0  0  0
    4.6353    0.7045    0.4588 H   0  0  0  0  0  0  0  0  0  0  0  0
    4.5909   -1.6890   -0.1718 H   0  0  0  0  0  0  0  0  0  0  0  0
    2.4762   -2.7338   -0.9296 H   0  0  0  0  0  0  0  0  0  0  0  0
    0.4106   -1.4013   -1.0662 H   0  0  0  0  0  0  0  0  0  0  0  0
   -0.5233   -0.7014    1.4069 H   0  0  0  0  0  0  0  0  0  0  0  0
   -2.7521   -1.5895    1.9535 H   0  0  0  0  0  0  0  0  0  0  0  0
   -4.7658   -0.7092    0.8089 H   0  0  0  0  0  0  0  0  0  0  0  0
   -4.5419    1.0726   -0.8986 H   0  0  0  0  0  0  0  0  0  0  0  0
   -2.3209    1.9661   -1.4801 H   0  0  0  0  0  0  0  0  0  0  0  0
  1  2  1  0
  2  3  2  0
  3  4  1  0
  4  5  2  0
  5  6  1  0
  6  7  2  0
  7  8  1  0
  8  9  2  0
  8 10  1  0
 10 11  2  0
 11 12  1  0
 12 13  2  0
 13 14  1  0
 14 15  2  0
  7  2  1  0
 15 10  1  0
  3 16  1  0
  4 17  1  0
  5 18  1  0
  6 19  1  0
 11 20  1  0
 12 21  1  0
 13 22  1  0
 14 23  1  0
 15 24  1  0
M  END
