
     RDKit          3D

 13 13  0  0  0  0  0  0  0  0999 V2000
    2.5008    0.1196    0.1611 O   0  0  0  0  0  0  0  0  0  0  0  0
    1.1103    0.0892    0.0699 C   0  0  0  0  0  0  0  0  0  0  0  0
    0.4113   -1.1296    0.0781 C   0  0  0  0  0  0  0  0  0  0  0  0
    1.0796   -2.3060    0.1755 F   0  0  0  0  0  0  0  0  0  0  0  0
   -0.9850   -1.1353   -0.0146 C   0  0  0  0  0  0  0  0  0  0  0  0
   -1.6862    0.0702   -0.1154 C   0  0  0  0  0  0  0  0  0  0  0  0
   -0.9925    1.2839   -0.1238 C   0  0  0  0  0  0  0  0  0  0  0  0
    0.4029    1.2934   -0.0313 C   0  0  0  0  0  0  0  0  0  0  0  0
    3.0501   -0.7283    0.2358 H   0  0  0  0  0  0  0  0  0  0  0  0
   -1.5245   -2.0737   -0.0084 H   0  0  0  0  0  0  0  0  0  0  0  0
   -2.7661    0.0637   -0.1870 H   0  0  0  0  0  0  0  0  0  0  0  0
   -1.5358    2.2168   -0.2018 H   0  0  0  0  0  0  0  0  0  0  0  0
    0.9351    2.2361   -0.0382 H   0  0  0  0  0  0  0  0  0  0  0  0
  1  2  1  0
  2  3  2  0
  3  4  1  0
  3  5  1  0
  5  6  2  0
  6  7  1  0
  7  8  2  0
  8  2  1  0
  1  9  1  0
  5 10  1  0
  6 11  1  0
  7 12  1  0
  8 13  1  0
M  END
