
     RDKit          3D

 14 14  0  0  0  0  0  0  0  0999 V2000
    2.3105   -0.3638   -0.0507 N   0  0  0  0  0  0  0  0  0  0  0  0
    0.8998   -0.1316   -0.0221 C   0  0  0  0  0  0  0  0  0  0  0  0
    0.3891    1.1481   -0.2870 C   0  0  0  0  0  0  0  0  0  0  0  0
   -0.9909    1.3738   -0.2587 C   0  0  0  0  0  0  0  0  0  0  0  0
   -1.8665    0.3240    0.0340 C   0  0  0  0  0  0  0  0  0  0  0  0
   -1.3632   -0.9535    0.2989 C   0  0  0  0  0  0  0  0  0  0  0  0
    0.0168   -1.1820    0.2712 C   0  0  0  0  0  0  0  0  0  0  0  0
   -2.2131   -1.9711    0.5827 F   0  0  0  0  0  0  0  0  0  0  0  0
    2.9756    0.4117   -0.2680 H   0  0  0  0  0  0  0  0  0  0  0  0
    2.7002   -1.3128    0.1452 H   0  0  0  0  0  0  0  0  0  0  0  0
    1.0588    1.9679   -0.5148 H   0  0  0  0  0  0  0  0  0  0  0  0
   -1.3815    2.3622   -0.4636 H   0  0  0  0  0  0  0  0  0  0  0  0
   -2.9341    0.5014    0.0553 H   0  0  0  0  0  0  0  0  0  0  0  0
    0.3985   -2.1742    0.4775 H   0  0  0  0  0  0  0  0  0  0  0  0
  1  2  1  0
  2  3  2  0
  3  4  1  0
  4  5  2  0
  5  6  1  0
  6  7  2  0
  6  8  1  0
  7  2  1  0
  1  9  1  0
  1 10  1  0
  3 11  1  0
  4 12  1  0
  5 13  1  0
  7 14  1  0
M  END
