
     RDKit          3D

  7  6  0  0  0  0  0  0  0  0999 V2000
   -1.5270   -0.7529    0.0950 O   0  0  0  0  0  0  0  0  0  0  0  0
   -0.6334    0.2950   -0.0949 C   0  0  0  0  0  0  0  0  0  0  0  0
   -1.0568    1.4484   -0.3699 O   0  0  0  0  0  0  0  0  0  0  0  0
    0.7776    0.0606    0.0230 C   0  0  0  0  0  0  0  0  0  0  0  0
    1.9626   -0.1367    0.1222 C   0  0  0  0  0  0  0  0  0  0  0  0
   -2.5260   -0.6045    0.0154 H   0  0  0  0  0  0  0  0  0  0  0  0
    3.0030   -0.3099    0.2092 H   0  0  0  0  0  0  0  0  0  0  0  0
  1  2  1  0
  2  3  2  0
  2  4  1  0
  4  5  3  0
  1  6  1  0
  5  7  1  0
M  END
