
     RDKit          3D

 21 21  0  0  0  0  0  0  0  0999 V2000
    2.9542    1.1897   -0.4942 C   0  0  0  0  0  0  0  0  0  0  0  0
    2.4750   -0.0713   -0.0384 O   0  0  0  0  0  0  0  0  0  0  0  0
    1.1183   -0.3984    0.1133 C   0  0  0  0  0  0  0  0  0  0  0  0
    0.0876    0.5175   -0.1785 C   0  0  0  0  0  0  0  0  0  0  0  0
   -1.2583    0.1490   -0.0231 C   0  0  0  0  0  0  0  0  0  0  0  0
   -1.5723   -1.1317    0.4536 C   0  0  0  0  0  0  0  0  0  0  0  0
   -0.5552   -2.0430    0.7438 C   0  0  0  0  0  0  0  0  0  0  0  0
    0.7876   -1.6813    0.5732 C   0  0  0  0  0  0  0  0  0  0  0  0
    1.8023   -2.5924    0.8621 O   0  0  0  0  0  0  0  0  0  0  0  0
   -2.3511    1.1410   -0.3002 C   0  0  0  0  0  0  0  0  0  0  0  0
   -2.6108    1.8794    0.8601 O   0  0  0  0  0  0  0  0  0  0  0  0
    2.6295    1.9947    0.1984 H   0  0  0  0  0  0  0  0  0  0  0  0
    2.5797    1.3925   -1.5198 H   0  0  0  0  0  0  0  0  0  0  0  0
    4.0630    1.1686   -0.5189 H   0  0  0  0  0  0  0  0  0  0  0  0
    0.3222    1.5151   -0.5255 H   0  0  0  0  0  0  0  0  0  0  0  0
   -2.6046   -1.4248    0.6002 H   0  0  0  0  0  0  0  0  0  0  0  0
   -0.8115   -3.0308    1.1052 H   0  0  0  0  0  0  0  0  0  0  0  0
    1.5970   -3.5265    1.1969 H   0  0  0  0  0  0  0  0  0  0  0  0
   -2.0441    1.8252   -1.1230 H   0  0  0  0  0  0  0  0  0  0  0  0
   -3.2745    0.6108   -0.6254 H   0  0  0  0  0  0  0  0  0  0  0  0
   -3.3341    2.5168    0.6246 H   0  0  0  0  0  0  0  0  0  0  0  0
  1  2  1  0
  2  3  1  0
  3  4  2  0
  4  5  1  0
  5  6  2  0
  6  7  1  0
  7  8  2  0
  8  9  1  0
  5 10  1  0
 10 11  1  0
  8  3  1  0
  1 12  1  0
  1 13  1  0
  1 14  1  0
  4 15  1  0
  6 16  1  0
  7 17  1  0
  9 18  1  0
 10 19  1  0
 10 20  1  0
 11 21  1  0
M  END
