
     RDKit          3D

 28 27  0  0  0  0  0  0  0  0999 V2000
   -4.3350    0.7155    0.8699 C   0  0  0  0  0  0  0  0  0  0  0  0
   -3.4650   -0.1935    0.0066 C   0  0  0  0  0  0  0  0  0  0  0  0
   -2.0810    0.4230   -0.2263 C   0  0  0  0  0  0  0  0  0  0  0  0
   -1.2101   -0.4919   -1.0939 C   0  0  0  0  0  0  0  0  0  0  0  0
    0.1508    0.1174   -1.3077 C   0  0  0  0  0  0  0  0  0  0  0  0
    0.2548    1.1264   -1.9898 O   0  0  0  0  0  0  0  0  0  0  0  0
    1.3884   -0.5018   -0.7127 C   0  0  0  0  0  0  0  0  0  0  0  0
    1.9887    0.4184    0.3594 C   0  0  0  0  0  0  0  0  0  0  0  0
    3.1763   -0.2242    1.0921 C   0  0  0  0  0  0  0  0  0  0  0  0
    4.4156   -0.3544    0.2073 C   0  0  0  0  0  0  0  0  0  0  0  0
   -4.4802    1.6977    0.3715 H   0  0  0  0  0  0  0  0  0  0  0  0
   -3.8615    0.8738    1.8623 H   0  0  0  0  0  0  0  0  0  0  0  0
   -5.3287    0.2440    1.0218 H   0  0  0  0  0  0  0  0  0  0  0  0
   -3.3572   -1.1763    0.5153 H   0  0  0  0  0  0  0  0  0  0  0  0
   -3.9722   -0.3557   -0.9695 H   0  0  0  0  0  0  0  0  0  0  0  0
   -1.5794    0.5837    0.7539 H   0  0  0  0  0  0  0  0  0  0  0  0
   -2.1981    1.4084   -0.7294 H   0  0  0  0  0  0  0  0  0  0  0  0
   -1.1177   -1.4839   -0.6014 H   0  0  0  0  0  0  0  0  0  0  0  0
   -1.6931   -0.6480   -2.0830 H   0  0  0  0  0  0  0  0  0  0  0  0
    2.1221   -0.6720   -1.5286 H   0  0  0  0  0  0  0  0  0  0  0  0
    1.1482   -1.4872   -0.2588 H   0  0  0  0  0  0  0  0  0  0  0  0
    2.3070    1.3805   -0.0994 H   0  0  0  0  0  0  0  0  0  0  0  0
    1.2035    0.6480    1.1133 H   0  0  0  0  0  0  0  0  0  0  0  0
    3.4369    0.4135    1.9644 H   0  0  0  0  0  0  0  0  0  0  0  0
    2.8897   -1.2251    1.4820 H   0  0  0  0  0  0  0  0  0  0  0  0
    5.2690   -0.7154    0.8191 H   0  0  0  0  0  0  0  0  0  0  0  0
    4.6864    0.6300   -0.2302 H   0  0  0  0  0  0  0  0  0  0  0  0
    4.2416   -1.0868   -0.6079 H   0  0  0  0  0  0  0  0  0  0  0  0
  1  2  1  0
  2  3  1  0
  3  4  1  0
  4  5  1  0
  5  6  2  0
  5  7  1  0
  7  8  1  0
  8  9  1  0
  9 10  1  0
  1 11  1  0
  1 12  1  0
  1 13  1  0
  2 14  1  0
  2 15  1  0
  3 16  1  0
  3 17  1  0
  4 18  1  0
  4 19  1  0
  7 20  1  0
  7 21  1  0
  8 22  1  0
  8 23  1  0
  9 24  1  0
  9 25  1  0
 10 26  1  0
 10 27  1  0
 10 28  1  0
M  END
