
     RDKit          3D

 11 10  0  0  0  0  0  0  0  0999 V2000
    1.8885   -0.1872   -0.5988 C   0  0  0  0  0  0  0  0  0  0  0  0
    0.4844   -0.4132   -0.6255 O   0  0  0  0  0  0  0  0  0  0  0  0
   -0.4137    0.3406    0.1353 C   0  0  0  0  0  0  0  0  0  0  0  0
   -0.0008    1.2527    0.9026 O   0  0  0  0  0  0  0  0  0  0  0  0
   -1.8709    0.0284    0.0734 C   0  0  0  0  0  0  0  0  0  0  0  0
   -2.2660   -1.2163    1.2817 Cl  0  0  0  0  0  0  0  0  0  0  0  0
    2.3864   -0.9048   -1.2826 H   0  0  0  0  0  0  0  0  0  0  0  0
    2.1136    0.8469   -0.9358 H   0  0  0  0  0  0  0  0  0  0  0  0
    2.2787   -0.3402    0.4297 H   0  0  0  0  0  0  0  0  0  0  0  0
   -2.4683    0.9418    0.2787 H   0  0  0  0  0  0  0  0  0  0  0  0
   -2.1318   -0.3487   -0.9376 H   0  0  0  0  0  0  0  0  0  0  0  0
  1  2  1  0
  2  3  1  0
  3  4  2  0
  3  5  1  0
  5  6  1  0
  1  7  1  0
  1  8  1  0
  1  9  1  0
  5 10  1  0
  5 11  1  0
M  END
