
     RDKit          3D

 19 19  0  0  0  0  0  0  0  0999 V2000
   -2.0814    1.0365    0.1955 C   0  0  0  0  0  0  0  0  0  0  0  0
   -0.6169    0.7264    0.0234 C   0  0  0  0  0  0  0  0  0  0  0  0
   -0.1338   -0.6075    0.0483 C   0  0  0  0  0  0  0  0  0  0  0  0
   -1.0760   -1.7639    0.2834 C   0  0  0  0  0  0  0  0  0  0  0  0
    1.2515   -0.8430   -0.0958 C   0  0  0  0  0  0  0  0  0  0  0  0
    2.1281    0.2298   -0.3030 C   0  0  0  0  0  0  0  0  0  0  0  0
    1.6439    1.5350   -0.3584 C   0  0  0  0  0  0  0  0  0  0  0  0
    0.2817    1.7837   -0.1967 C   0  0  0  0  0  0  0  0  0  0  0  0
    1.7577   -2.1417   -0.0324 O   0  0  0  0  0  0  0  0  0  0  0  0
   -2.4811    0.5173    1.0917 H   0  0  0  0  0  0  0  0  0  0  0  0
   -2.6410    0.7052   -0.7040 H   0  0  0  0  0  0  0  0  0  0  0  0
   -2.2550    2.1250    0.3336 H   0  0  0  0  0  0  0  0  0  0  0  0
   -1.9894   -1.6534   -0.3374 H   0  0  0  0  0  0  0  0  0  0  0  0
   -1.3632   -1.7955    1.3552 H   0  0  0  0  0  0  0  0  0  0  0  0
   -0.6190   -2.7375    0.0110 H   0  0  0  0  0  0  0  0  0  0  0  0
    3.1895    0.0513   -0.4206 H   0  0  0  0  0  0  0  0  0  0  0  0
    2.3276    2.3580   -0.5223 H   0  0  0  0  0  0  0  0  0  0  0  0
   -0.0711    2.8069   -0.2389 H   0  0  0  0  0  0  0  0  0  0  0  0
    2.7479   -2.3327   -0.1328 H   0  0  0  0  0  0  0  0  0  0  0  0
  1  2  1  0
  2  3  2  0
  3  4  1  0
  3  5  1  0
  5  6  2  0
  6  7  1  0
  7  8  2  0
  5  9  1  0
  8  2  1  0
  1 10  1  0
  1 11  1  0
  1 12  1  0
  4 13  1  0
  4 14  1  0
  4 15  1  0
  6 16  1  0
  7 17  1  0
  8 18  1  0
  9 19  1  0
M  END
