
     RDKit          3D

 22 22  0  0  0  0  0  0  0  0999 V2000
    2.5161    0.1773    0.6435 C   0  0  0  0  0  0  0  0  0  0  0  0
    1.0708    0.4249    0.2925 C   0  0  0  0  0  0  0  0  0  0  0  0
    0.1882   -0.6385   -0.0378 C   0  0  0  0  0  0  0  0  0  0  0  0
    0.6795   -2.0710   -0.0362 C   0  0  0  0  0  0  0  0  0  0  0  0
   -1.1776   -0.3468   -0.2989 C   0  0  0  0  0  0  0  0  0  0  0  0
   -1.6123    0.9880   -0.3144 C   0  0  0  0  0  0  0  0  0  0  0  0
   -0.7294    2.0293   -0.0374 C   0  0  0  0  0  0  0  0  0  0  0  0
    0.6035    1.7485    0.2684 C   0  0  0  0  0  0  0  0  0  0  0  0
   -1.1898    3.3442   -0.0631 O   0  0  0  0  0  0  0  0  0  0  0  0
   -2.1800   -1.4343   -0.5918 C   0  0  0  0  0  0  0  0  0  0  0  0
    2.9958    1.0849    1.0683 H   0  0  0  0  0  0  0  0  0  0  0  0
    2.5938   -0.6261    1.4060 H   0  0  0  0  0  0  0  0  0  0  0  0
    3.0769   -0.1176   -0.2680 H   0  0  0  0  0  0  0  0  0  0  0  0
    0.1229   -2.6960   -0.7635 H   0  0  0  0  0  0  0  0  0  0  0  0
    1.7442   -2.1395   -0.3378 H   0  0  0  0  0  0  0  0  0  0  0  0
    0.5605   -2.5016    0.9798 H   0  0  0  0  0  0  0  0  0  0  0  0
   -2.6454    1.2249   -0.5388 H   0  0  0  0  0  0  0  0  0  0  0  0
    1.2757    2.5681    0.4924 H   0  0  0  0  0  0  0  0  0  0  0  0
   -0.5754    4.1253    0.1351 H   0  0  0  0  0  0  0  0  0  0  0  0
   -2.1071   -2.2389    0.1698 H   0  0  0  0  0  0  0  0  0  0  0  0
   -1.9894   -1.8566   -1.6005 H   0  0  0  0  0  0  0  0  0  0  0  0
   -3.2216   -1.0485   -0.5676 H   0  0  0  0  0  0  0  0  0  0  0  0
  1  2  1  0
  2  3  2  0
  3  4  1  0
  3  5  1  0
  5  6  2  0
  6  7  1  0
  7  8  2  0
  7  9  1  0
  5 10  1  0
  8  2  1  0
  1 11  1  0
  1 12  1  0
  1 13  1  0
  4 14  1  0
  4 15  1  0
  4 16  1  0
  6 17  1  0
  8 18  1  0
  9 19  1  0
 10 20  1  0
 10 21  1  0
 10 22  1  0
M  END
