
     RDKit          3D

 17 17  0  0  0  0  0  0  0  0999 V2000
   -1.7873   -1.2033    0.0035 C   0  0  0  0  0  0  0  0  0  0  0  0
   -0.4201   -0.5699    0.0104 C   0  0  0  0  0  0  0  0  0  0  0  0
   -0.2295    0.8412   -0.0327 C   0  0  0  0  0  0  0  0  0  0  0  0
   -1.3378    1.8276   -0.0882 C   0  0  0  0  0  0  0  0  0  0  0  0
   -2.5485    1.4848   -0.1016 O   0  0  0  0  0  0  0  0  0  0  0  0
    1.0817    1.3512   -0.0228 C   0  0  0  0  0  0  0  0  0  0  0  0
    2.1832    0.4965    0.0282 C   0  0  0  0  0  0  0  0  0  0  0  0
    1.9958   -0.8825    0.0703 C   0  0  0  0  0  0  0  0  0  0  0  0
    0.7059   -1.4132    0.0615 C   0  0  0  0  0  0  0  0  0  0  0  0
   -1.7286   -2.3120    0.0416 H   0  0  0  0  0  0  0  0  0  0  0  0
   -2.3262   -0.9297   -0.9277 H   0  0  0  0  0  0  0  0  0  0  0  0
   -2.3635   -0.8691    0.8915 H   0  0  0  0  0  0  0  0  0  0  0  0
   -1.1074    2.8853   -0.1187 H   0  0  0  0  0  0  0  0  0  0  0  0
    1.2563    2.4201   -0.0548 H   0  0  0  0  0  0  0  0  0  0  0  0
    3.1853    0.9057    0.0351 H   0  0  0  0  0  0  0  0  0  0  0  0
    2.8523   -1.5431    0.1098 H   0  0  0  0  0  0  0  0  0  0  0  0
    0.5884   -2.4895    0.0949 H   0  0  0  0  0  0  0  0  0  0  0  0
  1  2  1  0
  2  3  2  0
  3  4  1  0
  4  5  2  0
  3  6  1  0
  6  7  2  0
  7  8  1  0
  8  9  2  0
  9  2  1  0
  1 10  1  0
  1 11  1  0
  1 12  1  0
  4 13  1  0
  6 14  1  0
  7 15  1  0
  8 16  1  0
  9 17  1  0
M  END
