
     RDKit          3D

 17 17  0  0  0  0  0  0  0  0999 V2000
    2.2455    0.2745   -0.5046 C   0  0  0  0  0  0  0  0  0  0  0  0
    1.3976   -0.3755    0.5837 C   0  0  0  0  0  0  0  0  0  0  0  0
   -0.0685   -0.1836    0.3033 C   0  0  0  0  0  0  0  0  0  0  0  0
   -0.7390    0.9537    0.7773 C   0  0  0  0  0  0  0  0  0  0  0  0
   -2.0928    1.1280    0.4796 C   0  0  0  0  0  0  0  0  0  0  0  0
   -2.7503    0.2058   -0.2725 N   0  0  0  0  0  0  0  0  0  0  0  0
   -2.1223   -0.8995   -0.7545 C   0  0  0  0  0  0  0  0  0  0  0  0
   -0.7690   -1.1125   -0.4803 C   0  0  0  0  0  0  0  0  0  0  0  0
    2.0433    1.3661   -0.5503 H   0  0  0  0  0  0  0  0  0  0  0  0
    3.3218    0.1214   -0.2787 H   0  0  0  0  0  0  0  0  0  0  0  0
    2.0208   -0.1818   -1.4924 H   0  0  0  0  0  0  0  0  0  0  0  0
    1.6378   -1.4598    0.6368 H   0  0  0  0  0  0  0  0  0  0  0  0
    1.6600    0.0700    1.5680 H   0  0  0  0  0  0  0  0  0  0  0  0
   -0.2190    1.6967    1.3693 H   0  0  0  0  0  0  0  0  0  0  0  0
   -2.6204    1.9992    0.8442 H   0  0  0  0  0  0  0  0  0  0  0  0
   -2.6728   -1.6122   -1.3539 H   0  0  0  0  0  0  0  0  0  0  0  0
   -0.2726   -1.9904   -0.8749 H   0  0  0  0  0  0  0  0  0  0  0  0
  1  2  1  0
  2  3  1  0
  3  4  2  0
  4  5  1  0
  5  6  2  0
  6  7  1  0
  7  8  2  0
  8  3  1  0
  1  9  1  0
  1 10  1  0
  1 11  1  0
  2 12  1  0
  2 13  1  0
  4 14  1  0
  5 15  1  0
  7 16  1  0
  8 17  1  0
M  END
