
     RDKit          3D

 13 13  0  0  0  0  0  0  0  0999 V2000
   -2.5337    0.5295    0.1905 O   0  0  0  0  0  0  0  0  0  0  0  0
   -1.1691    0.2724    0.0798 C   0  0  0  0  0  0  0  0  0  0  0  0
   -0.6542   -0.9982    0.3763 C   0  0  0  0  0  0  0  0  0  0  0  0
    0.7181   -1.2430    0.2610 C   0  0  0  0  0  0  0  0  0  0  0  0
    1.5803   -0.2205   -0.1504 C   0  0  0  0  0  0  0  0  0  0  0  0
    3.6494   -0.5903   -0.3240 I   0  0  0  0  0  0  0  0  0  0  0  0
    1.0680    1.0475   -0.4465 C   0  0  0  0  0  0  0  0  0  0  0  0
   -0.3042    1.2932   -0.3315 C   0  0  0  0  0  0  0  0  0  0  0  0
   -3.1853   -0.1883    0.4855 H   0  0  0  0  0  0  0  0  0  0  0  0
   -1.3150   -1.7942    0.6951 H   0  0  0  0  0  0  0  0  0  0  0  0
    1.1101   -2.2252    0.4910 H   0  0  0  0  0  0  0  0  0  0  0  0
    1.7313    1.8412   -0.7650 H   0  0  0  0  0  0  0  0  0  0  0  0
   -0.6955    2.2760   -0.5618 H   0  0  0  0  0  0  0  0  0  0  0  0
  1  2  1  0
  2  3  2  0
  3  4  1  0
  4  5  2  0
  5  6  1  0
  5  7  1  0
  7  8  2  0
  8  2  1  0
  1  9  1  0
  3 10  1  0
  4 11  1  0
  7 12  1  0
  8 13  1  0
M  END
