
     RDKit          3D

 19 19  0  0  0  0  0  0  0  0999 V2000
    3.0797   -0.1478   -0.1167 C   0  0  0  0  0  0  0  0  0  0  0  0
    1.5832   -0.0887   -0.0319 C   0  0  0  0  0  0  0  0  0  0  0  0
    0.8491   -1.2318    0.3191 C   0  0  0  0  0  0  0  0  0  0  0  0
   -0.5429   -1.1684    0.4334 C   0  0  0  0  0  0  0  0  0  0  0  0
   -1.2162    0.0447    0.2219 C   0  0  0  0  0  0  0  0  0  0  0  0
   -2.7162    0.1037    0.3106 C   0  0  0  0  0  0  0  0  0  0  0  0
   -3.2857   -0.2787   -0.9111 O   0  0  0  0  0  0  0  0  0  0  0  0
   -0.4815    1.1884   -0.1269 C   0  0  0  0  0  0  0  0  0  0  0  0
    0.9105    1.1248   -0.2412 C   0  0  0  0  0  0  0  0  0  0  0  0
    3.4599    0.5909   -0.8541 H   0  0  0  0  0  0  0  0  0  0  0  0
    3.5148    0.0777    0.8792 H   0  0  0  0  0  0  0  0  0  0  0  0
    3.4144   -1.1570   -0.4385 H   0  0  0  0  0  0  0  0  0  0  0  0
    1.3536   -2.1729    0.5003 H   0  0  0  0  0  0  0  0  0  0  0  0
   -1.0955   -2.0637    0.6903 H   0  0  0  0  0  0  0  0  0  0  0  0
   -3.0736   -0.5879    1.1031 H   0  0  0  0  0  0  0  0  0  0  0  0
   -3.0566    1.1256    0.5955 H   0  0  0  0  0  0  0  0  0  0  0  0
   -3.1743    0.4906   -1.5290 H   0  0  0  0  0  0  0  0  0  0  0  0
   -0.9858    2.1298   -0.3070 H   0  0  0  0  0  0  0  0  0  0  0  0
    1.4629    2.0207   -0.4968 H   0  0  0  0  0  0  0  0  0  0  0  0
  1  2  1  0
  2  3  2  0
  3  4  1  0
  4  5  2  0
  5  6  1  0
  6  7  1  0
  5  8  1  0
  8  9  2  0
  9  2  1  0
  1 10  1  0
  1 11  1  0
  1 12  1  0
  3 13  1  0
  4 14  1  0
  6 15  1  0
  6 16  1  0
  7 17  1  0
  8 18  1  0
  9 19  1  0
M  END
