
     RDKit          3D

 17 16  0  0  0  0  0  0  0  0999 V2000
   -2.1455   -0.5401    0.6801 C   0  0  0  0  0  0  0  0  0  0  0  0
   -0.7635   -0.5122    0.0335 C   0  0  0  0  0  0  0  0  0  0  0  0
   -0.4092    0.8986   -0.4527 C   0  0  0  0  0  0  0  0  0  0  0  0
    0.9200    0.9395   -1.2143 C   0  0  0  0  0  0  0  0  0  0  0  0
    2.0232    0.6989   -0.3402 O   0  0  0  0  0  0  0  0  0  0  0  0
    2.6056   -0.5588   -0.1514 C   0  0  0  0  0  0  0  0  0  0  0  0
    2.2046   -1.5684   -0.7899 O   0  0  0  0  0  0  0  0  0  0  0  0
   -2.3708   -1.5691    1.0315 H   0  0  0  0  0  0  0  0  0  0  0  0
   -2.9221   -0.2385   -0.0548 H   0  0  0  0  0  0  0  0  0  0  0  0
   -2.1776    0.1481    1.5516 H   0  0  0  0  0  0  0  0  0  0  0  0
   -0.0180   -0.8508    0.7840 H   0  0  0  0  0  0  0  0  0  0  0  0
   -0.7541   -1.2203   -0.8236 H   0  0  0  0  0  0  0  0  0  0  0  0
   -1.2104    1.2616   -1.1334 H   0  0  0  0  0  0  0  0  0  0  0  0
   -0.3551    1.5921    0.4150 H   0  0  0  0  0  0  0  0  0  0  0  0
    0.9140    0.2260   -2.0675 H   0  0  0  0  0  0  0  0  0  0  0  0
    1.0391    1.9577   -1.6414 H   0  0  0  0  0  0  0  0  0  0  0  0
    3.4199   -0.6643    0.5520 H   0  0  0  0  0  0  0  0  0  0  0  0
  1  2  1  0
  2  3  1  0
  3  4  1  0
  4  5  1  0
  5  6  1  0
  6  7  2  0
  1  8  1  0
  1  9  1  0
  1 10  1  0
  2 11  1  0
  2 12  1  0
  3 13  1  0
  3 14  1  0
  4 15  1  0
  4 16  1  0
  6 17  1  0
M  END
