
     RDKit          3D

 15 14  0  0  0  0  0  0  0  0999 V2000
    2.1491   -0.4227   -0.2012 C   0  0  0  0  0  0  0  0  0  0  0  0
    1.2228    0.1201    0.8814 C   0  0  0  0  0  0  0  0  0  0  0  0
   -0.0654    0.6101    0.2833 C   0  0  0  0  0  0  0  0  0  0  0  0
   -0.1747    1.8286   -0.0212 O   0  0  0  0  0  0  0  0  0  0  0  0
   -1.1824   -0.3159    0.0088 C   0  0  0  0  0  0  0  0  0  0  0  0
   -2.4545    0.1837   -0.6015 C   0  0  0  0  0  0  0  0  0  0  0  0
   -1.0692   -1.5410    0.2834 O   0  0  0  0  0  0  0  0  0  0  0  0
    1.6743   -1.2814   -0.7222 H   0  0  0  0  0  0  0  0  0  0  0  0
    3.0977   -0.7687    0.2607 H   0  0  0  0  0  0  0  0  0  0  0  0
    2.3831    0.3716   -0.9420 H   0  0  0  0  0  0  0  0  0  0  0  0
    1.7307    0.9562    1.4094 H   0  0  0  0  0  0  0  0  0  0  0  0
    1.0193   -0.6752    1.6305 H   0  0  0  0  0  0  0  0  0  0  0  0
   -3.1858   -0.6449   -0.7138 H   0  0  0  0  0  0  0  0  0  0  0  0
   -2.2450    0.6132   -1.6035 H   0  0  0  0  0  0  0  0  0  0  0  0
   -2.8998    0.9663    0.0479 H   0  0  0  0  0  0  0  0  0  0  0  0
  1  2  1  0
  2  3  1  0
  3  4  2  0
  3  5  1  0
  5  6  1  0
  5  7  2  0
  1  8  1  0
  1  9  1  0
  1 10  1  0
  2 11  1  0
  2 12  1  0
  6 13  1  0
  6 14  1  0
  6 15  1  0
M  END
