
     RDKit          3D

 23 24  0  0  0  0  0  0  0  0999 V2000
    0.6399   -2.0308   -2.0144 O   0  0  0  0  0  0  0  0  0  0  0  0
    0.6182   -0.9586   -1.1138 C   0  0  0  0  0  0  0  0  0  0  0  0
    1.7977   -0.1951   -0.9650 C   0  0  0  0  0  0  0  0  0  0  0  0
    1.8290    0.8534   -0.0380 C   0  0  0  0  0  0  0  0  0  0  0  0
    0.7118    1.1826    0.7344 C   0  0  0  0  0  0  0  0  0  0  0  0
   -0.4733    0.4231    0.6064 C   0  0  0  0  0  0  0  0  0  0  0  0
   -1.5923    0.6820    1.4264 C   0  0  0  0  0  0  0  0  0  0  0  0
   -2.7659   -0.0543    1.2836 C   0  0  0  0  0  0  0  0  0  0  0  0
   -2.8448   -1.0638    0.3315 C   0  0  0  0  0  0  0  0  0  0  0  0
   -1.7438   -1.3621   -0.4711 C   0  0  0  0  0  0  0  0  0  0  0  0
   -0.5328   -0.6433   -0.3389 C   0  0  0  0  0  0  0  0  0  0  0  0
    0.7913    2.3156    1.6147 N   0  0  0  0  0  4  0  0  0  0  0  0
   -0.1434    3.3213    1.5247 O   0  0  0  0  0  1  0  0  0  0  0  0
    1.8243    2.5109    2.2879 O   0  0  0  0  0  0  0  0  0  0  0  0
    2.9793   -0.4745   -1.7454 N   0  0  0  0  0  4  0  0  0  0  0  0
    4.2025    0.0195   -1.3530 O   0  0  0  0  0  1  0  0  0  0  0  0
    2.9083   -1.1012   -2.8227 O   0  0  0  0  0  0  0  0  0  0  0  0
   -0.1088   -2.6918   -2.1552 H   0  0  0  0  0  0  0  0  0  0  0  0
    2.7263    1.4513    0.0624 H   0  0  0  0  0  0  0  0  0  0  0  0
   -1.5676    1.4388    2.1975 H   0  0  0  0  0  0  0  0  0  0  0  0
   -3.6183    0.1586    1.9160 H   0  0  0  0  0  0  0  0  0  0  0  0
   -3.7628   -1.6267    0.2199 H   0  0  0  0  0  0  0  0  0  0  0  0
   -1.8749   -2.1549   -1.1882 H   0  0  0  0  0  0  0  0  0  0  0  0
  1  2  1  0
  2  3  2  0
  3  4  1  0
  4  5  2  0
  5  6  1  0
  6  7  2  0
  7  8  1  0
  8  9  2  0
  9 10  1  0
 10 11  2  0
  5 12  1  0
 12 13  1  0
 12 14  2  0
  3 15  1  0
 15 16  1  0
 15 17  2  0
 11  2  1  0
 11  6  1  0
  1 18  1  0
  4 19  1  0
  7 20  1  0
  8 21  1  0
  9 22  1  0
 10 23  1  0
M  CHG  4  12   1  13  -1  15   1  16  -1
M  END
