
     RDKit          3D

 20 20  0  0  0  0  0  0  0  0999 V2000
    2.7700   -0.8912    0.1415 C   0  0  0  0  0  0  0  0  0  0  0  0
    1.3510   -0.4148    0.0327 C   0  0  0  0  0  0  0  0  0  0  0  0
    1.0708    0.9552   -0.0150 C   0  0  0  0  0  0  0  0  0  0  0  0
   -0.2534    1.4207   -0.0838 C   0  0  0  0  0  0  0  0  0  0  0  0
   -1.3143    0.4834   -0.1041 C   0  0  0  0  0  0  0  0  0  0  0  0
   -2.6238    0.9385   -0.2811 O   0  0  0  0  0  0  0  0  0  0  0  0
   -1.0353   -0.9002    0.0116 C   0  0  0  0  0  0  0  0  0  0  0  0
    0.2972   -1.3333    0.0645 C   0  0  0  0  0  0  0  0  0  0  0  0
   -2.0872   -1.8743    0.0994 N   0  0  0  0  0  4  0  0  0  0  0  0
   -1.9094   -3.1264   -0.4427 O   0  0  0  0  0  1  0  0  0  0  0  0
   -3.0641   -1.6774    0.8511 O   0  0  0  0  0  0  0  0  0  0  0  0
   -0.5003    2.8409   -0.1525 N   0  0  0  0  0  4  0  0  0  0  0  0
    0.5341    3.7146   -0.4000 O   0  0  0  0  0  1  0  0  0  0  0  0
   -1.6356    3.3103    0.0688 O   0  0  0  0  0  0  0  0  0  0  0  0
    3.0604   -0.9448    1.2115 H   0  0  0  0  0  0  0  0  0  0  0  0
    3.4582   -0.1973   -0.3867 H   0  0  0  0  0  0  0  0  0  0  0  0
    2.8824   -1.8976   -0.3154 H   0  0  0  0  0  0  0  0  0  0  0  0
    1.8921    1.6608    0.0034 H   0  0  0  0  0  0  0  0  0  0  0  0
   -3.4072    0.3239   -0.4579 H   0  0  0  0  0  0  0  0  0  0  0  0
    0.5144   -2.3910    0.1547 H   0  0  0  0  0  0  0  0  0  0  0  0
  1  2  1  0
  2  3  2  0
  3  4  1  0
  4  5  2  0
  5  6  1  0
  5  7  1  0
  7  8  2  0
  7  9  1  0
  9 10  1  0
  9 11  2  0
  4 12  1  0
 12 13  1  0
 12 14  2  0
  8  2  1  0
  1 15  1  0
  1 16  1  0
  1 17  1  0
  3 18  1  0
  6 19  1  0
  8 20  1  0
M  CHG  4   9   1  10  -1  12   1  13  -1
M  END
