
     RDKit          3D

 22 22  0  0  0  0  0  0  0  0999 V2000
    3.7312   -0.3984   -0.3805 C   0  0  0  0  0  0  0  0  0  0  0  0
    2.4227   -0.9452   -0.2527 O   0  0  0  0  0  0  0  0  0  0  0  0
    1.2527   -0.1808   -0.1282 C   0  0  0  0  0  0  0  0  0  0  0  0
    0.0314   -0.8512   -0.0101 C   0  0  0  0  0  0  0  0  0  0  0  0
   -1.1796   -0.1402    0.1181 C   0  0  0  0  0  0  0  0  0  0  0  0
   -1.1518    1.2739    0.1268 C   0  0  0  0  0  0  0  0  0  0  0  0
   -2.3790    2.0914    0.2575 C   0  0  0  0  0  0  0  0  0  0  0  0
   -3.5183    1.5664    0.3685 O   0  0  0  0  0  0  0  0  0  0  0  0
    0.0781    1.9394    0.0078 C   0  0  0  0  0  0  0  0  0  0  0  0
    1.2687    1.2232   -0.1184 C   0  0  0  0  0  0  0  0  0  0  0  0
   -2.4100   -0.8087    0.2371 O   0  0  0  0  0  0  0  0  0  0  0  0
   -2.5687   -2.2239    0.2418 C   0  0  0  0  0  0  0  0  0  0  0  0
    3.7967    0.2249   -1.2973 H   0  0  0  0  0  0  0  0  0  0  0  0
    3.9799    0.2101    0.5145 H   0  0  0  0  0  0  0  0  0  0  0  0
    4.4640   -1.2271   -0.4613 H   0  0  0  0  0  0  0  0  0  0  0  0
    0.0388   -1.9326   -0.0196 H   0  0  0  0  0  0  0  0  0  0  0  0
   -2.3062    3.1718    0.2589 H   0  0  0  0  0  0  0  0  0  0  0  0
    0.1183    3.0222    0.0125 H   0  0  0  0  0  0  0  0  0  0  0  0
    2.1964    1.7718   -0.2078 H   0  0  0  0  0  0  0  0  0  0  0  0
   -2.2015   -2.6528   -0.7144 H   0  0  0  0  0  0  0  0  0  0  0  0
   -2.0182   -2.6673    1.0982 H   0  0  0  0  0  0  0  0  0  0  0  0
   -3.6456   -2.4669    0.3488 H   0  0  0  0  0  0  0  0  0  0  0  0
  1  2  1  0
  2  3  1  0
  3  4  2  0
  4  5  1  0
  5  6  2  0
  6  7  1  0
  7  8  2  0
  6  9  1  0
  9 10  2  0
  5 11  1  0
 11 12  1  0
 10  3  1  0
  1 13  1  0
  1 14  1  0
  1 15  1  0
  4 16  1  0
  7 17  1  0
  9 18  1  0
 10 19  1  0
 12 20  1  0
 12 21  1  0
 12 22  1  0
M  END
