
     RDKit          3D

 28 29  0  0  0  0  0  0  0  0999 V2000
    1.6330   -2.2438   -2.0365 O   0  0  0  0  0  0  0  0  0  0  0  0
    1.3004   -1.2949   -1.2765 C   0  0  0  0  0  0  0  0  0  0  0  0
   -0.1378   -0.9767   -1.1520 C   0  0  0  0  0  0  0  0  0  0  0  0
   -0.6635   -0.4151   -0.0532 C   0  0  0  0  0  0  0  0  0  0  0  0
   -2.1031   -0.0911    0.1039 C   0  0  0  0  0  0  0  0  0  0  0  0
   -2.4751    0.8543    1.0758 C   0  0  0  0  0  0  0  0  0  0  0  0
   -3.8195    1.1872    1.2663 C   0  0  0  0  0  0  0  0  0  0  0  0
   -4.8089    0.5735    0.4960 C   0  0  0  0  0  0  0  0  0  0  0  0
   -4.4561   -0.3789   -0.4622 C   0  0  0  0  0  0  0  0  0  0  0  0
   -3.1128   -0.7157   -0.6581 C   0  0  0  0  0  0  0  0  0  0  0  0
    2.3617   -0.5406   -0.5670 C   0  0  0  0  0  0  0  0  0  0  0  0
    2.2614    0.8509   -0.3807 C   0  0  0  0  0  0  0  0  0  0  0  0
    3.2805    1.5518    0.2714 C   0  0  0  0  0  0  0  0  0  0  0  0
    4.4127    0.8755    0.7319 C   0  0  0  0  0  0  0  0  0  0  0  0
    4.5308   -0.5026    0.5355 C   0  0  0  0  0  0  0  0  0  0  0  0
    3.5143   -1.2080   -0.1161 C   0  0  0  0  0  0  0  0  0  0  0  0
   -0.7713   -1.2601   -1.9804 H   0  0  0  0  0  0  0  0  0  0  0  0
   -0.0077   -0.1565    0.7693 H   0  0  0  0  0  0  0  0  0  0  0  0
   -1.7224    1.3426    1.6831 H   0  0  0  0  0  0  0  0  0  0  0  0
   -4.0941    1.9214    2.0128 H   0  0  0  0  0  0  0  0  0  0  0  0
   -5.8494    0.8311    0.6459 H   0  0  0  0  0  0  0  0  0  0  0  0
   -5.2256   -0.8629   -1.0498 H   0  0  0  0  0  0  0  0  0  0  0  0
   -2.8806   -1.4792   -1.3867 H   0  0  0  0  0  0  0  0  0  0  0  0
    1.4034    1.3975   -0.7512 H   0  0  0  0  0  0  0  0  0  0  0  0
    3.1951    2.6214    0.4140 H   0  0  0  0  0  0  0  0  0  0  0  0
    5.2010    1.4200    1.2353 H   0  0  0  0  0  0  0  0  0  0  0  0
    5.4112   -1.0247    0.8874 H   0  0  0  0  0  0  0  0  0  0  0  0
    3.6223   -2.2763   -0.2584 H   0  0  0  0  0  0  0  0  0  0  0  0
  1  2  2  0
  2  3  1  0
  3  4  2  0
  4  5  1  0
  5  6  2  0
  6  7  1  0
  7  8  2  0
  8  9  1  0
  9 10  2  0
  2 11  1  0
 11 12  2  0
 12 13  1  0
 13 14  2  0
 14 15  1  0
 15 16  2  0
 10  5  1  0
 16 11  1  0
  3 17  1  0
  4 18  1  0
  6 19  1  0
  7 20  1  0
  8 21  1  0
  9 22  1  0
 10 23  1  0
 12 24  1  0
 13 25  1  0
 14 26  1  0
 15 27  1  0
 16 28  1  0
M  END
