
     RDKit          3D

 10 10  0  0  0  0  0  0  0  0999 V2000
    3.3144   -0.7154    0.0369 N   0  0  0  0  0  0  0  0  0  0  0  0
    2.1715   -0.5340    0.0383 C   0  0  0  0  0  0  0  0  0  0  0  0
    0.7527   -0.3089    0.0401 C   0  0  0  0  0  0  0  0  0  0  0  0
    0.1330    0.8986   -0.1996 C   0  0  0  0  0  0  0  0  0  0  0  0
   -1.2181    0.6433   -0.0960 C   0  0  0  0  0  0  0  0  0  0  0  0
   -1.3337   -0.7011    0.1996 C   0  0  0  0  0  0  0  0  0  0  0  0
   -0.1390   -1.2422    0.2743 O   0  0  0  0  0  0  0  0  0  0  0  0
    0.6034    1.8475   -0.4221 H   0  0  0  0  0  0  0  0  0  0  0  0
   -2.0249    1.3529   -0.2211 H   0  0  0  0  0  0  0  0  0  0  0  0
   -2.2593   -1.2405    0.3495 H   0  0  0  0  0  0  0  0  0  0  0  0
  1  2  3  0
  2  3  1  0
  3  4  2  0
  4  5  1  0
  5  6  2  0
  6  7  1  0
  7  3  1  0
  4  8  1  0
  5  9  1  0
  6 10  1  0
M  END
