
     RDKit          3D

  6  5  0  0  0  0  0  0  0  0999 V2000
   -1.6442    1.4289    0.0266 I   0  0  0  0  0  0  0  0  0  0  0  0
   -0.3720   -0.2822    0.0018 C   0  0  0  0  0  0  0  0  0  0  0  0
    1.0266    0.1479   -0.0093 C   0  0  0  0  0  0  0  0  0  0  0  0
    2.1329    0.4875   -0.0181 N   0  0  0  0  0  0  0  0  0  0  0  0
   -0.5626   -0.8973    0.9052 H   0  0  0  0  0  0  0  0  0  0  0  0
   -0.5808   -0.8847   -0.9061 H   0  0  0  0  0  0  0  0  0  0  0  0
  1  2  1  0
  2  3  1  0
  3  4  3  0
  2  5  1  0
  2  6  1  0
M  END
