
     RDKit          3D

 11 11  0  0  0  0  0  0  0  0999 V2000
   -2.6101    1.4254    0.2563 Cl  0  0  0  0  0  0  0  0  0  0  0  0
   -1.1311    0.4952    0.1031 C   0  0  0  0  0  0  0  0  0  0  0  0
   -1.1784   -0.8998    0.0146 C   0  0  0  0  0  0  0  0  0  0  0  0
   -0.0267   -1.6141   -0.1041 N   0  0  0  0  0  0  0  0  0  0  0  0
    1.1895   -1.0058   -0.1402 C   0  0  0  0  0  0  0  0  0  0  0  0
    1.2787    0.3860   -0.0545 C   0  0  0  0  0  0  0  0  0  0  0  0
    0.1090    1.1392    0.0679 C   0  0  0  0  0  0  0  0  0  0  0  0
   -2.1286   -1.4169    0.0400 H   0  0  0  0  0  0  0  0  0  0  0  0
    2.0870   -1.6024   -0.2353 H   0  0  0  0  0  0  0  0  0  0  0  0
    2.2438    0.8750   -0.0827 H   0  0  0  0  0  0  0  0  0  0  0  0
    0.1669    2.2181    0.1350 H   0  0  0  0  0  0  0  0  0  0  0  0
  1  2  1  0
  2  3  2  0
  3  4  1  0
  4  5  2  0
  5  6  1  0
  6  7  2  0
  7  2  1  0
  3  8  1  0
  5  9  1  0
  6 10  1  0
  7 11  1  0
M  END
