
     RDKit          3D

 22 21  0  0  0  0  0  0  0  0999 V2000
   -2.3892   -0.1124    1.6559 C   0  0  0  0  0  0  0  0  0  0  0  0
   -2.2707   -0.6595    0.2336 C   0  0  0  0  0  0  0  0  0  0  0  0
   -1.3194    0.1682   -0.6444 C   0  0  0  0  0  0  0  0  0  0  0  0
    0.1523    0.0058   -0.2361 C   0  0  0  0  0  0  0  0  0  0  0  0
    1.0773    0.7411   -1.2160 C   0  0  0  0  0  0  0  0  0  0  0  0
    2.5481    0.6645   -0.7897 C   0  0  0  0  0  0  0  0  0  0  0  0
    3.0443   -0.7058   -0.8576 N   0  0  0  0  0  4  0  0  0  0  0  0
    3.0996   -1.4754    0.2809 O   0  0  0  0  0  1  0  0  0  0  0  0
    3.3156   -1.2202   -1.9619 O   0  0  0  0  0  0  0  0  0  0  0  0
   -1.4329   -0.2343    2.2052 H   0  0  0  0  0  0  0  0  0  0  0  0
   -3.1750   -0.6750    2.2027 H   0  0  0  0  0  0  0  0  0  0  0  0
   -2.6722    0.9615    1.6374 H   0  0  0  0  0  0  0  0  0  0  0  0
   -1.9356   -1.7189    0.2684 H   0  0  0  0  0  0  0  0  0  0  0  0
   -3.2805   -0.6422   -0.2308 H   0  0  0  0  0  0  0  0  0  0  0  0
   -1.6081    1.2415   -0.6033 H   0  0  0  0  0  0  0  0  0  0  0  0
   -1.4401   -0.1732   -1.6960 H   0  0  0  0  0  0  0  0  0  0  0  0
    0.3048    0.4203    0.7832 H   0  0  0  0  0  0  0  0  0  0  0  0
    0.4110   -1.0752   -0.2241 H   0  0  0  0  0  0  0  0  0  0  0  0
    0.9657    0.3118   -2.2358 H   0  0  0  0  0  0  0  0  0  0  0  0
    0.7826    1.8125   -1.2616 H   0  0  0  0  0  0  0  0  0  0  0  0
    2.6675    1.0589    0.2430 H   0  0  0  0  0  0  0  0  0  0  0  0
    3.1550    1.3061   -1.4649 H   0  0  0  0  0  0  0  0  0  0  0  0
  1  2  1  0
  2  3  1  0
  3  4  1  0
  4  5  1  0
  5  6  1  0
  6  7  1  0
  7  8  1  0
  7  9  2  0
  1 10  1  0
  1 11  1  0
  1 12  1  0
  2 13  1  0
  2 14  1  0
  3 15  1  0
  3 16  1  0
  4 17  1  0
  4 18  1  0
  5 19  1  0
  5 20  1  0
  6 21  1  0
  6 22  1  0
M  CHG  2   7   1   8  -1
M  END
