
     RDKit          3D

 17 17  0  0  0  0  0  0  0  0999 V2000
    2.6774   -0.5334   -0.0918 C   0  0  0  0  0  0  0  0  0  0  0  0
    1.3105    0.0698   -0.1289 C   0  0  0  0  0  0  0  0  0  0  0  0
    0.1878   -0.7055    0.1900 C   0  0  0  0  0  0  0  0  0  0  0  0
   -1.0788   -0.1114    0.1563 C   0  0  0  0  0  0  0  0  0  0  0  0
   -1.1872    1.2309   -0.2240 C   0  0  0  0  0  0  0  0  0  0  0  0
   -0.0238    1.9436   -0.5296 C   0  0  0  0  0  0  0  0  0  0  0  0
   -0.0979    3.1547   -0.8648 O   0  0  0  0  0  0  0  0  0  0  0  0
    1.1641    1.3483   -0.4706 O   0  0  0  0  0  0  0  0  0  0  0  0
   -2.3066   -0.9202    0.4519 C   0  0  0  0  0  0  0  0  0  0  0  0
    3.4416    0.2275   -0.3565 H   0  0  0  0  0  0  0  0  0  0  0  0
    2.7384   -1.3702   -0.8190 H   0  0  0  0  0  0  0  0  0  0  0  0
    2.8921   -0.9162    0.9281 H   0  0  0  0  0  0  0  0  0  0  0  0
    0.3009   -1.7492    0.4591 H   0  0  0  0  0  0  0  0  0  0  0  0
   -2.1556    1.7140   -0.2813 H   0  0  0  0  0  0  0  0  0  0  0  0
   -3.1067   -0.2767    0.8761 H   0  0  0  0  0  0  0  0  0  0  0  0
   -2.6757   -1.3868   -0.4852 H   0  0  0  0  0  0  0  0  0  0  0  0
   -2.0806   -1.7191    1.1900 H   0  0  0  0  0  0  0  0  0  0  0  0
  1  2  1  0
  2  3  2  0
  3  4  1  0
  4  5  2  0
  5  6  1  0
  6  7  2  0
  6  8  1  0
  4  9  1  0
  8  2  1  0
  1 10  1  0
  1 11  1  0
  1 12  1  0
  3 13  1  0
  5 14  1  0
  9 15  1  0
  9 16  1  0
  9 17  1  0
M  END
