
     RDKit          3D

 18 18  0  0  0  0  0  0  0  0999 V2000
    1.6956    0.6916    0.9054 C   0  0  0  0  0  0  0  0  0  0  0  0
    1.5867   -0.3758   -0.1865 C   0  0  0  0  0  0  0  0  0  0  0  0
    0.1676   -0.5179   -0.7688 C   0  0  0  0  0  0  0  0  0  0  0  0
   -0.8681   -1.0532    0.2526 C   0  0  0  0  0  0  0  0  0  0  0  0
   -1.8666    0.0856    0.4970 C   0  0  0  0  0  0  0  0  0  0  0  0
   -1.4610    1.0933   -0.5019 C   0  0  0  0  0  0  0  0  0  0  0  0
   -2.0711    2.1765   -0.6977 O   0  0  0  0  0  0  0  0  0  0  0  0
   -0.3270    0.7397   -1.1972 O   0  0  0  0  0  0  0  0  0  0  0  0
    1.4276    1.6909    0.5023 H   0  0  0  0  0  0  0  0  0  0  0  0
    2.7416    0.7341    1.2751 H   0  0  0  0  0  0  0  0  0  0  0  0
    1.0329    0.4526    1.7626 H   0  0  0  0  0  0  0  0  0  0  0  0
    2.2831   -0.1072   -1.0101 H   0  0  0  0  0  0  0  0  0  0  0  0
    1.9169   -1.3547    0.2239 H   0  0  0  0  0  0  0  0  0  0  0  0
    0.2112   -1.2031   -1.6437 H   0  0  0  0  0  0  0  0  0  0  0  0
   -1.4028   -1.9251   -0.1844 H   0  0  0  0  0  0  0  0  0  0  0  0
   -0.4013   -1.3823    1.2062 H   0  0  0  0  0  0  0  0  0  0  0  0
   -1.7530    0.5006    1.5213 H   0  0  0  0  0  0  0  0  0  0  0  0
   -2.9123   -0.2456    0.3201 H   0  0  0  0  0  0  0  0  0  0  0  0
  1  2  1  0
  2  3  1  0
  3  4  1  0
  4  5  1  0
  5  6  1  0
  6  7  2  0
  6  8  1  0
  8  3  1  0
  1  9  1  0
  1 10  1  0
  1 11  1  0
  2 12  1  0
  2 13  1  0
  3 14  1  0
  4 15  1  0
  4 16  1  0
  5 17  1  0
  5 18  1  0
M  END
