
     RDKit          3D

 18 17  0  0  0  0  0  0  0  0999 V2000
    2.7114   -0.0265    0.9268 C   0  0  0  0  0  0  0  0  0  0  0  0
    1.9674    0.9532    0.0268 C   0  0  0  0  0  0  0  0  0  0  0  0
    0.5575    0.7709    0.1414 O   0  0  0  0  0  0  0  0  0  0  0  0
   -0.1355   -0.2914   -0.4527 C   0  0  0  0  0  0  0  0  0  0  0  0
    0.4783   -1.1217   -1.1793 O   0  0  0  0  0  0  0  0  0  0  0  0
   -1.5923   -0.4255   -0.2275 C   0  0  0  0  0  0  0  0  0  0  0  0
   -2.2920    0.5700    0.6560 C   0  0  0  0  0  0  0  0  0  0  0  0
   -2.3001   -1.3774   -0.8476 C   0  0  0  0  0  0  0  0  0  0  0  0
    3.8030    0.1675    0.8677 H   0  0  0  0  0  0  0  0  0  0  0  0
    2.5174   -1.0713    0.6064 H   0  0  0  0  0  0  0  0  0  0  0  0
    2.3797    0.0994    1.9792 H   0  0  0  0  0  0  0  0  0  0  0  0
    2.2166    1.9878    0.3438 H   0  0  0  0  0  0  0  0  0  0  0  0
    2.2901    0.8294   -1.0299 H   0  0  0  0  0  0  0  0  0  0  0  0
   -1.6832    0.7701    1.5629 H   0  0  0  0  0  0  0  0  0  0  0  0
   -2.4361    1.5197    0.0997 H   0  0  0  0  0  0  0  0  0  0  0  0
   -3.2835    0.1959    0.9913 H   0  0  0  0  0  0  0  0  0  0  0  0
   -1.8279   -2.0927   -1.5091 H   0  0  0  0  0  0  0  0  0  0  0  0
   -3.3708   -1.4574   -0.7061 H   0  0  0  0  0  0  0  0  0  0  0  0
  1  2  1  0
  2  3  1  0
  3  4  1  0
  4  5  2  0
  4  6  1  0
  6  7  1  0
  6  8  2  3
  1  9  1  0
  1 10  1  0
  1 11  1  0
  2 12  1  0
  2 13  1  0
  7 14  1  0
  7 15  1  0
  7 16  1  0
  8 17  1  0
  8 18  1  0
M  END
