
     RDKit          3D

 14 14  0  0  0  0  0  0  0  0999 V2000
    2.3477    0.0196    0.1641 N   0  0  0  0  0  0  0  0  0  0  0  0
    0.9191    0.0077    0.0643 C   0  0  0  0  0  0  0  0  0  0  0  0
    0.1811   -1.0706    0.5830 C   0  0  0  0  0  0  0  0  0  0  0  0
    0.8132   -2.1107    1.1834 F   0  0  0  0  0  0  0  0  0  0  0  0
   -1.2149   -1.0796    0.4840 C   0  0  0  0  0  0  0  0  0  0  0  0
   -1.8814   -0.0157   -0.1315 C   0  0  0  0  0  0  0  0  0  0  0  0
   -3.2344   -0.0271   -0.2261 F   0  0  0  0  0  0  0  0  0  0  0  0
   -1.1535    1.0598   -0.6496 C   0  0  0  0  0  0  0  0  0  0  0  0
    0.2426    1.0741   -0.5534 C   0  0  0  0  0  0  0  0  0  0  0  0
    0.9347    2.1253   -1.0612 F   0  0  0  0  0  0  0  0  0  0  0  0
   -1.8019    2.0909   -1.2464 F   0  0  0  0  0  0  0  0  0  0  0  0
   -1.9227   -2.1221    0.9860 F   0  0  0  0  0  0  0  0  0  0  0  0
    2.8625   -0.7660    0.6203 H   0  0  0  0  0  0  0  0  0  0  0  0
    2.9078    0.8142   -0.2170 H   0  0  0  0  0  0  0  0  0  0  0  0
  1  2  1  0
  2  3  2  0
  3  4  1  0
  3  5  1  0
  5  6  2  0
  6  7  1  0
  6  8  1  0
  8  9  2  0
  9 10  1  0
  8 11  1  0
  5 12  1  0
  9  2  1  0
  1 13  1  0
  1 14  1  0
M  END
