
     RDKit          3D

 17 17  0  0  0  0  0  0  0  0999 V2000
   -3.0472   -0.3547   -0.1781 C   0  0  0  0  0  0  0  0  0  0  0  0
   -2.0978    0.5753    0.3329 O   0  0  0  0  0  0  0  0  0  0  0  0
   -0.7110    0.3648    0.3454 C   0  0  0  0  0  0  0  0  0  0  0  0
    0.1095    1.3664    0.8795 C   0  0  0  0  0  0  0  0  0  0  0  0
    1.4978    1.2040    0.9146 C   0  0  0  0  0  0  0  0  0  0  0  0
    2.0802    0.0337    0.4137 C   0  0  0  0  0  0  0  0  0  0  0  0
    1.2684   -0.9732   -0.1222 C   0  0  0  0  0  0  0  0  0  0  0  0
   -0.1204   -0.8113   -0.1576 C   0  0  0  0  0  0  0  0  0  0  0  0
    3.5095   -0.1340    0.4496 C   0  0  0  0  0  0  0  0  0  0  0  0
    4.6585   -0.2688    0.4785 N   0  0  0  0  0  0  0  0  0  0  0  0
   -4.0665    0.0671   -0.0623 H   0  0  0  0  0  0  0  0  0  0  0  0
   -2.8589   -0.5387   -1.2570 H   0  0  0  0  0  0  0  0  0  0  0  0
   -2.9905   -1.3083    0.3882 H   0  0  0  0  0  0  0  0  0  0  0  0
   -0.3319    2.2750    1.2692 H   0  0  0  0  0  0  0  0  0  0  0  0
    2.1158    1.9901    1.3318 H   0  0  0  0  0  0  0  0  0  0  0  0
    1.7086   -1.8830   -0.5126 H   0  0  0  0  0  0  0  0  0  0  0  0
   -0.7243   -1.6044   -0.5769 H   0  0  0  0  0  0  0  0  0  0  0  0
  1  2  1  0
  2  3  1  0
  3  4  2  0
  4  5  1  0
  5  6  2  0
  6  7  1  0
  7  8  2  0
  6  9  1  0
  9 10  3  0
  8  3  1  0
  1 11  1  0
  1 12  1  0
  1 13  1  0
  4 14  1  0
  5 15  1  0
  7 16  1  0
  8 17  1  0
M  END
