
     RDKit          3D

 19 18  0  0  0  0  0  0  0  0999 V2000
    2.3138   -0.8722    0.8637 C   0  0  0  0  0  0  0  0  0  0  0  0
    1.9717    0.6117    0.7636 C   0  0  0  0  0  0  0  0  0  0  0  0
    0.5171    0.8165    0.4429 C   0  0  0  0  0  0  0  0  0  0  0  0
    0.0165    0.5241   -0.7672 C   0  0  0  0  0  0  0  0  0  0  0  0
   -1.4349    0.7485   -1.0952 C   0  0  0  0  0  0  0  0  0  0  0  0
   -2.3414   -0.2431   -0.3644 C   0  0  0  0  0  0  0  0  0  0  0  0
   -2.0344   -1.5530   -0.7557 O   0  0  0  0  0  0  0  0  0  0  0  0
    1.6873   -1.3599    1.6410 H   0  0  0  0  0  0  0  0  0  0  0  0
    2.1475   -1.3775   -0.1113 H   0  0  0  0  0  0  0  0  0  0  0  0
    3.3821   -0.9885    1.1433 H   0  0  0  0  0  0  0  0  0  0  0  0
    2.6025    1.0934   -0.0147 H   0  0  0  0  0  0  0  0  0  0  0  0
    2.1976    1.0963    1.7376 H   0  0  0  0  0  0  0  0  0  0  0  0
   -0.1288    1.2380    1.2085 H   0  0  0  0  0  0  0  0  0  0  0  0
    0.6710    0.1408   -1.5454 H   0  0  0  0  0  0  0  0  0  0  0  0
   -1.7222    1.7877   -0.8246 H   0  0  0  0  0  0  0  0  0  0  0  0
   -1.5809    0.6308   -2.1907 H   0  0  0  0  0  0  0  0  0  0  0  0
   -3.4000   -0.0165   -0.6217 H   0  0  0  0  0  0  0  0  0  0  0  0
   -2.2164   -0.1341    0.7362 H   0  0  0  0  0  0  0  0  0  0  0  0
   -2.6482   -2.1431   -0.2459 H   0  0  0  0  0  0  0  0  0  0  0  0
  1  2  1  0
  2  3  1  0
  3  4  2  0
  4  5  1  0
  5  6  1  0
  6  7  1  0
  1  8  1  0
  1  9  1  0
  1 10  1  0
  2 11  1  0
  2 12  1  0
  3 13  1  0
  4 14  1  0
  5 15  1  0
  5 16  1  0
  6 17  1  0
  6 18  1  0
  7 19  1  0
M  END
