
     RDKit          3D

  9  9  0  0  0  0  0  0  0  0999 V2000
    3.0956    0.7130   -0.0017 Br  0  0  0  0  0  0  0  0  0  0  0  0
    1.2063    0.4603   -0.0243 C   0  0  0  0  0  0  0  0  0  0  0  0
    0.5449   -0.7502    0.1130 C   0  0  0  0  0  0  0  0  0  0  0  0
   -0.8483   -0.6248    0.0560 C   0  0  0  0  0  0  0  0  0  0  0  0
   -1.2828    0.6822   -0.1258 C   0  0  0  0  0  0  0  0  0  0  0  0
    0.0684    1.6804   -0.2155 S   0  0  0  0  0  0  0  0  0  0  0  0
    1.0526   -1.6956    0.2503 H   0  0  0  0  0  0  0  0  0  0  0  0
   -1.5229   -1.4658    0.1452 H   0  0  0  0  0  0  0  0  0  0  0  0
   -2.3139    1.0006   -0.1972 H   0  0  0  0  0  0  0  0  0  0  0  0
  1  2  1  0
  2  3  2  0
  3  4  1  0
  4  5  2  0
  5  6  1  0
  6  2  1  0
  3  7  1  0
  4  8  1  0
  5  9  1  0
M  END
