
     RDKit          3D

 22 23  0  0  0  0  0  0  0  0999 V2000
   -3.3300    1.5211   -1.6448 O   0  0  0  0  0  0  0  0  0  0  0  0
   -2.6074    0.7303   -0.9843 C   0  0  0  0  0  0  0  0  0  0  0  0
   -2.9263    0.2615    0.3777 C   0  0  0  0  0  0  0  0  0  0  0  0
   -1.6987   -0.5840    0.7410 C   0  0  0  0  0  0  0  0  0  0  0  0
   -0.8338   -0.6741   -0.5403 C   0  0  0  0  0  0  0  0  0  0  0  0
   -1.4292    0.2132   -1.4715 O   0  0  0  0  0  0  0  0  0  0  0  0
    0.6059   -0.2944   -0.2865 C   0  0  0  0  0  0  0  0  0  0  0  0
    0.9693    1.0505   -0.0895 C   0  0  0  0  0  0  0  0  0  0  0  0
    2.2996    1.3906    0.1743 C   0  0  0  0  0  0  0  0  0  0  0  0
    3.2752    0.3934    0.2531 C   0  0  0  0  0  0  0  0  0  0  0  0
    2.9212   -0.9462    0.0729 C   0  0  0  0  0  0  0  0  0  0  0  0
    1.5919   -1.2913   -0.1909 C   0  0  0  0  0  0  0  0  0  0  0  0
   -3.0440    1.1227    1.0699 H   0  0  0  0  0  0  0  0  0  0  0  0
   -3.8481   -0.3586    0.3608 H   0  0  0  0  0  0  0  0  0  0  0  0
   -2.0095   -1.5989    1.0722 H   0  0  0  0  0  0  0  0  0  0  0  0
   -1.1475   -0.0976    1.5766 H   0  0  0  0  0  0  0  0  0  0  0  0
   -0.8989   -1.7042   -0.9562 H   0  0  0  0  0  0  0  0  0  0  0  0
    0.2228    1.8336   -0.1358 H   0  0  0  0  0  0  0  0  0  0  0  0
    2.5735    2.4273    0.3215 H   0  0  0  0  0  0  0  0  0  0  0  0
    4.3043    0.6583    0.4586 H   0  0  0  0  0  0  0  0  0  0  0  0
    3.6767   -1.7183    0.1408 H   0  0  0  0  0  0  0  0  0  0  0  0
    1.3327   -2.3349   -0.3195 H   0  0  0  0  0  0  0  0  0  0  0  0
  1  2  2  0
  2  3  1  0
  3  4  1  0
  4  5  1  0
  5  6  1  0
  5  7  1  0
  7  8  2  0
  8  9  1  0
  9 10  2  0
 10 11  1  0
 11 12  2  0
  6  2  1  0
 12  7  1  0
  3 13  1  0
  3 14  1  0
  4 15  1  0
  4 16  1  0
  5 17  1  0
  8 18  1  0
  9 19  1  0
 10 20  1  0
 11 21  1  0
 12 22  1  0
M  END
