
     RDKit          3D

 22 21  0  0  0  0  0  0  0  0999 V2000
    3.9650    1.2561    0.5904 S   0  0  0  0  0  0  0  0  0  0  0  0
    2.9358   -0.1630    0.1061 C   0  0  0  0  0  0  0  0  0  0  0  0
    1.4656    0.1290    0.4052 C   0  0  0  0  0  0  0  0  0  0  0  0
    0.5756   -1.0530   -0.0066 C   0  0  0  0  0  0  0  0  0  0  0  0
   -0.8938   -0.8571    0.3988 C   0  0  0  0  0  0  0  0  0  0  0  0
   -1.6004    0.2189   -0.4388 C   0  0  0  0  0  0  0  0  0  0  0  0
   -3.0893    0.2888   -0.0961 C   0  0  0  0  0  0  0  0  0  0  0  0
   -3.9134    1.5616   -1.1025 S   0  0  0  0  0  0  0  0  0  0  0  0
    5.1506    0.6195    0.1769 H   0  0  0  0  0  0  0  0  0  0  0  0
    3.2702   -1.0576    0.6741 H   0  0  0  0  0  0  0  0  0  0  0  0
    3.0728   -0.3512   -0.9804 H   0  0  0  0  0  0  0  0  0  0  0  0
    1.1642    1.0402   -0.1537 H   0  0  0  0  0  0  0  0  0  0  0  0
    1.3478    0.3228    1.4939 H   0  0  0  0  0  0  0  0  0  0  0  0
    0.9484   -1.9737    0.4938 H   0  0  0  0  0  0  0  0  0  0  0  0
    0.6452   -1.2153   -1.1047 H   0  0  0  0  0  0  0  0  0  0  0  0
   -1.4201   -1.8264    0.2550 H   0  0  0  0  0  0  0  0  0  0  0  0
   -0.9556   -0.5979    1.4787 H   0  0  0  0  0  0  0  0  0  0  0  0
   -1.1417    1.2105   -0.2402 H   0  0  0  0  0  0  0  0  0  0  0  0
   -1.4872   -0.0163   -1.5198 H   0  0  0  0  0  0  0  0  0  0  0  0
   -3.2250    0.5345    0.9791 H   0  0  0  0  0  0  0  0  0  0  0  0
   -3.5723   -0.6897   -0.3040 H   0  0  0  0  0  0  0  0  0  0  0  0
   -3.2424    2.6191   -0.4587 H   0  0  0  0  0  0  0  0  0  0  0  0
  1  2  1  0
  2  3  1  0
  3  4  1  0
  4  5  1  0
  5  6  1  0
  6  7  1  0
  7  8  1  0
  1  9  1  0
  2 10  1  0
  2 11  1  0
  3 12  1  0
  3 13  1  0
  4 14  1  0
  4 15  1  0
  5 16  1  0
  5 17  1  0
  6 18  1  0
  6 19  1  0
  7 20  1  0
  7 21  1  0
  8 22  1  0
M  END
