
     RDKit          3D

 19 18  0  0  0  0  0  0  0  0999 V2000
    1.7878   -1.0888    0.3051 C   0  0  0  0  0  0  0  0  0  0  0  0
    1.2064    0.1587   -0.3626 C   0  0  0  0  0  0  0  0  0  0  0  0
   -0.0595    0.6877    0.3662 C   0  0  0  0  0  0  0  0  0  0  0  0
   -1.3759    0.2646   -0.3263 C   0  0  0  0  0  0  0  0  0  0  0  0
   -1.6174   -1.2435   -0.2943 C   0  0  0  0  0  0  0  0  0  0  0  0
   -0.0144    2.1922    0.4605 C   0  0  0  0  0  0  0  0  0  0  0  0
    0.0019    2.8818   -0.5477 O   0  0  0  0  0  0  0  0  0  0  0  0
    2.1061   -0.8533    1.3430 H   0  0  0  0  0  0  0  0  0  0  0  0
    1.0479   -1.9130    0.3335 H   0  0  0  0  0  0  0  0  0  0  0  0
    2.6761   -1.4342   -0.2647 H   0  0  0  0  0  0  0  0  0  0  0  0
    0.9839   -0.0645   -1.4288 H   0  0  0  0  0  0  0  0  0  0  0  0
    2.0105    0.9284   -0.3603 H   0  0  0  0  0  0  0  0  0  0  0  0
   -0.0781    0.3066    1.4121 H   0  0  0  0  0  0  0  0  0  0  0  0
   -2.2297    0.7545    0.1926 H   0  0  0  0  0  0  0  0  0  0  0  0
   -1.3836    0.6104   -1.3835 H   0  0  0  0  0  0  0  0  0  0  0  0
   -1.5170   -1.6337    0.7408 H   0  0  0  0  0  0  0  0  0  0  0  0
   -2.6453   -1.4601   -0.6543 H   0  0  0  0  0  0  0  0  0  0  0  0
   -0.9045   -1.7657   -0.9652 H   0  0  0  0  0  0  0  0  0  0  0  0
    0.0048    2.6718    1.4339 H   0  0  0  0  0  0  0  0  0  0  0  0
  1  2  1  0
  2  3  1  0
  3  4  1  0
  4  5  1  0
  3  6  1  0
  6  7  2  0
  1  8  1  0
  1  9  1  0
  1 10  1  0
  2 11  1  0
  2 12  1  0
  3 13  1  0
  4 14  1  0
  4 15  1  0
  5 16  1  0
  5 17  1  0
  5 18  1  0
  6 19  1  0
M  END
