
     RDKit          3D

 18 18  0  0  0  0  0  0  0  0999 V2000
   -2.1469   -1.4353   -1.2476 N   0  0  0  0  0  0  0  0  0  0  0  0
   -1.3265   -0.4947   -0.5495 C   0  0  0  0  0  0  0  0  0  0  0  0
   -1.9143    0.5490    0.1789 C   0  0  0  0  0  0  0  0  0  0  0  0
   -1.1129    1.4630    0.8682 C   0  0  0  0  0  0  0  0  0  0  0  0
    0.2790    1.3437    0.8308 C   0  0  0  0  0  0  0  0  0  0  0  0
    0.8804    0.3128    0.0920 C   0  0  0  0  0  0  0  0  0  0  0  0
    0.0709   -0.6131   -0.5863 C   0  0  0  0  0  0  0  0  0  0  0  0
    2.3768    0.1632    0.0815 C   0  0  0  0  0  0  0  0  0  0  0  0
    2.7945   -0.5724    1.1984 O   0  0  0  0  0  0  0  0  0  0  0  0
   -3.1881   -1.3565   -1.2252 H   0  0  0  0  0  0  0  0  0  0  0  0
   -1.7192   -2.2172   -1.7922 H   0  0  0  0  0  0  0  0  0  0  0  0
   -2.9916    0.6508    0.2160 H   0  0  0  0  0  0  0  0  0  0  0  0
   -1.5713    2.2630    1.4350 H   0  0  0  0  0  0  0  0  0  0  0  0
    0.8876    2.0539    1.3769 H   0  0  0  0  0  0  0  0  0  0  0  0
    0.5262   -1.4245   -1.1415 H   0  0  0  0  0  0  0  0  0  0  0  0
    2.7193   -0.3278   -0.8580 H   0  0  0  0  0  0  0  0  0  0  0  0
    2.8553    1.1652    0.1145 H   0  0  0  0  0  0  0  0  0  0  0  0
    2.5807   -1.5232    1.0079 H   0  0  0  0  0  0  0  0  0  0  0  0
  1  2  1  0
  2  3  2  0
  3  4  1  0
  4  5  2  0
  5  6  1  0
  6  7  2  0
  6  8  1  0
  8  9  1  0
  7  2  1  0
  1 10  1  0
  1 11  1  0
  3 12  1  0
  4 13  1  0
  5 14  1  0
  7 15  1  0
  8 16  1  0
  8 17  1  0
  9 18  1  0
M  END
