
     RDKit          3D

 15 14  0  0  0  0  0  0  0  0999 V2000
   -2.3002    0.2717    0.2872 C   0  0  0  0  0  0  0  0  0  0  0  0
   -0.8261    0.6354    0.4113 C   0  0  0  0  0  0  0  0  0  0  0  0
    0.1813   -0.8290    0.5853 S   0  0  0  0  0  6  0  0  0  0  0  0
    0.0140   -1.7217   -0.6124 O   0  0  0  0  0  0  0  0  0  0  0  0
   -0.2348   -1.5794    1.8192 O   0  0  0  0  0  0  0  0  0  0  0  0
    1.8706   -0.3690    0.7425 C   0  0  0  0  0  0  0  0  0  0  0  0
    2.5195    0.2111   -0.2675 C   0  0  0  0  0  0  0  0  0  0  0  0
   -2.6413   -0.2700    1.1948 H   0  0  0  0  0  0  0  0  0  0  0  0
   -2.9030    1.1978    0.1789 H   0  0  0  0  0  0  0  0  0  0  0  0
   -2.4656   -0.3666   -0.6064 H   0  0  0  0  0  0  0  0  0  0  0  0
   -0.5054    1.1920   -0.4946 H   0  0  0  0  0  0  0  0  0  0  0  0
   -0.6778    1.2855    1.2993 H   0  0  0  0  0  0  0  0  0  0  0  0
    2.3883   -0.5594    1.6771 H   0  0  0  0  0  0  0  0  0  0  0  0
    2.0186    0.4109   -1.2096 H   0  0  0  0  0  0  0  0  0  0  0  0
    3.5618    0.4906   -0.1544 H   0  0  0  0  0  0  0  0  0  0  0  0
  1  2  1  0
  2  3  1  0
  3  4  2  0
  3  5  2  0
  3  6  1  0
  6  7  2  3
  1  8  1  0
  1  9  1  0
  1 10  1  0
  2 11  1  0
  2 12  1  0
  6 13  1  0
  7 14  1  0
  7 15  1  0
M  END
