
     RDKit          3D

 20 20  0  0  0  0  0  0  0  0999 V2000
   -3.7590   -0.0022   -0.1696 C   0  0  0  0  0  0  0  0  0  0  0  0
   -2.3618    0.2571   -0.2332 O   0  0  0  0  0  0  0  0  0  0  0  0
   -1.4078   -0.6089    0.3105 C   0  0  0  0  0  0  0  0  0  0  0  0
   -1.7702   -1.6904    0.8508 O   0  0  0  0  0  0  0  0  0  0  0  0
    0.0324   -0.2928    0.1988 C   0  0  0  0  0  0  0  0  0  0  0  0
    0.9386   -1.3448   -0.0279 C   0  0  0  0  0  0  0  0  0  0  0  0
    2.2979   -1.0865   -0.2169 C   0  0  0  0  0  0  0  0  0  0  0  0
    2.7747    0.2276   -0.1812 C   0  0  0  0  0  0  0  0  0  0  0  0
    4.1266    0.4985   -0.3800 O   0  0  0  0  0  0  0  0  0  0  0  0
    1.8886    1.2797    0.0620 C   0  0  0  0  0  0  0  0  0  0  0  0
    0.5262    1.0337    0.2746 C   0  0  0  0  0  0  0  0  0  0  0  0
   -0.2898    2.1216    0.5918 O   0  0  0  0  0  0  0  0  0  0  0  0
   -3.9937   -0.9522   -0.6948 H   0  0  0  0  0  0  0  0  0  0  0  0
   -4.0854   -0.0678    0.8899 H   0  0  0  0  0  0  0  0  0  0  0  0
   -4.3062    0.8266   -0.6637 H   0  0  0  0  0  0  0  0  0  0  0  0
    0.5898   -2.3688   -0.0863 H   0  0  0  0  0  0  0  0  0  0  0  0
    2.9779   -1.9083   -0.4018 H   0  0  0  0  0  0  0  0  0  0  0  0
    4.7949   -0.2425   -0.5566 H   0  0  0  0  0  0  0  0  0  0  0  0
    2.2643    2.2944    0.1093 H   0  0  0  0  0  0  0  0  0  0  0  0
   -1.2381    2.0259    0.9282 H   0  0  0  0  0  0  0  0  0  0  0  0
  1  2  1  0
  2  3  1  0
  3  4  2  0
  3  5  1  0
  5  6  2  0
  6  7  1  0
  7  8  2  0
  8  9  1  0
  8 10  1  0
 10 11  2  0
 11 12  1  0
 11  5  1  0
  1 13  1  0
  1 14  1  0
  1 15  1  0
  6 16  1  0
  7 17  1  0
  9 18  1  0
 10 19  1  0
 12 20  1  0
M  END
