
     RDKit          3D

  8  7  0  0  0  0  0  0  0  0999 V2000
   -1.1839    0.0972   -0.4259 N   0  0  0  0  0  0  0  0  0  0  0  0
   -0.0485    0.1412    0.4382 C   0  0  0  0  0  0  0  0  0  0  0  0
    1.2362   -0.2494   -0.0465 N   0  0  0  0  0  0  0  0  0  0  0  0
   -0.2199    0.6403    1.9878 S   0  0  0  0  0  0  0  0  0  0  0  0
   -2.1283    0.3807   -0.0817 H   0  0  0  0  0  0  0  0  0  0  0  0
   -1.0828   -0.2199   -1.4153 H   0  0  0  0  0  0  0  0  0  0  0  0
    2.0735   -0.2212    0.5769 H   0  0  0  0  0  0  0  0  0  0  0  0
    1.3537   -0.5689   -1.0334 H   0  0  0  0  0  0  0  0  0  0  0  0
  1  2  1  0
  2  3  1  0
  2  4  2  0
  1  5  1  0
  1  6  1  0
  3  7  1  0
  3  8  1  0
M  END
