
     RDKit          3D

 17 17  0  0  0  0  0  0  0  0999 V2000
   -2.5052    1.0844    0.6483 N   0  0  0  0  0  0  0  0  0  0  0  0
   -1.3677    0.2990    0.2813 C   0  0  0  0  0  0  0  0  0  0  0  0
   -0.0931    0.8827    0.2327 C   0  0  0  0  0  0  0  0  0  0  0  0
    1.0324    0.1162   -0.1277 C   0  0  0  0  0  0  0  0  0  0  0  0
    0.8594   -1.2459   -0.4388 C   0  0  0  0  0  0  0  0  0  0  0  0
    1.9222   -2.0139   -0.7901 F   0  0  0  0  0  0  0  0  0  0  0  0
   -0.4117   -1.8252   -0.3896 C   0  0  0  0  0  0  0  0  0  0  0  0
   -1.5213   -1.0575   -0.0313 C   0  0  0  0  0  0  0  0  0  0  0  0
    2.4123    0.7271   -0.1856 C   0  0  0  0  0  0  0  0  0  0  0  0
    2.9190    0.6014   -1.4664 F   0  0  0  0  0  0  0  0  0  0  0  0
    3.2469    0.0656    0.6970 F   0  0  0  0  0  0  0  0  0  0  0  0
    2.3946    2.0701    0.1497 F   0  0  0  0  0  0  0  0  0  0  0  0
   -2.4032    2.0969    0.8835 H   0  0  0  0  0  0  0  0  0  0  0  0
   -3.4584    0.6592    0.6875 H   0  0  0  0  0  0  0  0  0  0  0  0
    0.0117    1.9322    0.4767 H   0  0  0  0  0  0  0  0  0  0  0  0
   -0.5377   -2.8731   -0.6300 H   0  0  0  0  0  0  0  0  0  0  0  0
   -2.5001   -1.5192    0.0027 H   0  0  0  0  0  0  0  0  0  0  0  0
  1  2  1  0
  2  3  2  0
  3  4  1  0
  4  5  2  0
  5  6  1  0
  5  7  1  0
  7  8  2  0
  4  9  1  0
  9 10  1  0
  9 11  1  0
  9 12  1  0
  8  2  1  0
  1 13  1  0
  1 14  1  0
  3 15  1  0
  7 16  1  0
  8 17  1  0
M  END
