
     RDKit          3D

 25 24  0  0  0  0  0  0  0  0999 V2000
    4.7212   -0.0371    0.5442 C   0  0  0  0  0  0  0  0  0  0  0  0
    3.3877    0.2733   -0.1177 C   0  0  0  0  0  0  0  0  0  0  0  0
    2.5142    0.8353    0.8395 O   0  0  0  0  0  0  0  0  0  0  0  0
    1.2231    1.0153    0.2882 C   0  0  0  0  0  0  0  0  0  0  0  0
    0.3184   -0.1518    0.6724 C   0  0  0  0  0  0  0  0  0  0  0  0
   -0.9982    0.0874    0.1859 O   0  0  0  0  0  0  0  0  0  0  0  0
   -2.0532   -0.8089    0.3860 C   0  0  0  0  0  0  0  0  0  0  0  0
   -1.8585   -1.8831    1.0206 O   0  0  0  0  0  0  0  0  0  0  0  0
   -3.3938   -0.4871   -0.1525 C   0  0  0  0  0  0  0  0  0  0  0  0
   -3.5953    0.8069   -0.8917 C   0  0  0  0  0  0  0  0  0  0  0  0
   -4.4050   -1.3577   -0.0476 C   0  0  0  0  0  0  0  0  0  0  0  0
    4.5746   -0.7646    1.3706 H   0  0  0  0  0  0  0  0  0  0  0  0
    5.4181   -0.4747   -0.2015 H   0  0  0  0  0  0  0  0  0  0  0  0
    5.1688    0.8937    0.9529 H   0  0  0  0  0  0  0  0  0  0  0  0
    3.5677    0.9943   -0.9469 H   0  0  0  0  0  0  0  0  0  0  0  0
    2.9757   -0.6746   -0.5326 H   0  0  0  0  0  0  0  0  0  0  0  0
    0.7947    1.9446    0.7203 H   0  0  0  0  0  0  0  0  0  0  0  0
    1.2217    1.1527   -0.8198 H   0  0  0  0  0  0  0  0  0  0  0  0
    0.7111   -1.0930    0.2311 H   0  0  0  0  0  0  0  0  0  0  0  0
    0.2941   -0.2517    1.7795 H   0  0  0  0  0  0  0  0  0  0  0  0
   -4.6717    1.0731   -0.9674 H   0  0  0  0  0  0  0  0  0  0  0  0
   -3.0800    1.6348   -0.3606 H   0  0  0  0  0  0  0  0  0  0  0  0
   -3.1749    0.7164   -1.9151 H   0  0  0  0  0  0  0  0  0  0  0  0
   -4.2828   -2.3081    0.4564 H   0  0  0  0  0  0  0  0  0  0  0  0
   -5.3780   -1.1354   -0.4681 H   0  0  0  0  0  0  0  0  0  0  0  0
  1  2  1  0
  2  3  1  0
  3  4  1  0
  4  5  1  0
  5  6  1  0
  6  7  1  0
  7  8  2  0
  7  9  1  0
  9 10  1  0
  9 11  2  3
  1 12  1  0
  1 13  1  0
  1 14  1  0
  2 15  1  0
  2 16  1  0
  4 17  1  0
  4 18  1  0
  5 19  1  0
  5 20  1  0
 10 21  1  0
 10 22  1  0
 10 23  1  0
 11 24  1  0
 11 25  1  0
M  END
