
     RDKit          3D

 22 21  0  0  0  0  0  0  0  0999 V2000
   -3.3080   -0.8182    0.0081 C   0  0  0  0  0  0  0  0  0  0  0  0
   -2.3185    0.3364   -0.1197 C   0  0  0  0  0  0  0  0  0  0  0  0
   -0.8774   -0.1771   -0.2214 C   0  0  0  0  0  0  0  0  0  0  0  0
    0.1141    0.9902   -0.3391 C   0  0  0  0  0  0  0  0  0  0  0  0
    1.5581    0.5205   -0.5788 C   0  0  0  0  0  0  0  0  0  0  0  0
    2.1857   -0.1239    0.6680 C   0  0  0  0  0  0  0  0  0  0  0  0
    3.6372   -0.4931    0.4868 C   0  0  0  0  0  0  0  0  0  0  0  0
    4.4960   -0.2686   -1.0364 Cl  0  0  0  0  0  0  0  0  0  0  0  0
    4.2464   -0.9726    1.4293 O   0  0  0  0  0  0  0  0  0  0  0  0
   -3.0943   -1.4102    0.9235 H   0  0  0  0  0  0  0  0  0  0  0  0
   -4.3408   -0.4165    0.0782 H   0  0  0  0  0  0  0  0  0  0  0  0
   -3.2443   -1.4812   -0.8810 H   0  0  0  0  0  0  0  0  0  0  0  0
   -2.5718    0.9269   -1.0272 H   0  0  0  0  0  0  0  0  0  0  0  0
   -2.4191    0.9965    0.7694 H   0  0  0  0  0  0  0  0  0  0  0  0
   -0.7847   -0.8335   -1.1145 H   0  0  0  0  0  0  0  0  0  0  0  0
   -0.6459   -0.7755    0.6853 H   0  0  0  0  0  0  0  0  0  0  0  0
    0.0691    1.6197    0.5767 H   0  0  0  0  0  0  0  0  0  0  0  0
   -0.1847    1.6280   -1.2000 H   0  0  0  0  0  0  0  0  0  0  0  0
    1.5824   -0.1947   -1.4302 H   0  0  0  0  0  0  0  0  0  0  0  0
    2.1604    1.4115   -0.8620 H   0  0  0  0  0  0  0  0  0  0  0  0
    2.1094    0.5836    1.5221 H   0  0  0  0  0  0  0  0  0  0  0  0
    1.6308   -1.0483    0.9313 H   0  0  0  0  0  0  0  0  0  0  0  0
  1  2  1  0
  2  3  1  0
  3  4  1  0
  4  5  1  0
  5  6  1  0
  6  7  1  0
  7  8  1  0
  7  9  2  0
  1 10  1  0
  1 11  1  0
  1 12  1  0
  2 13  1  0
  2 14  1  0
  3 15  1  0
  3 16  1  0
  4 17  1  0
  4 18  1  0
  5 19  1  0
  5 20  1  0
  6 21  1  0
  6 22  1  0
M  END
