
     RDKit          3D

 20 19  0  0  0  0  0  0  0  0999 V2000
    2.4745    0.7840    0.0361 C   0  0  0  0  0  0  0  0  0  0  0  0
    1.1736    0.1951    0.3602 N   0  0  0  0  0  0  0  0  0  0  0  0
    1.1201   -1.1642    0.9009 C   0  0  0  0  0  0  0  0  0  0  0  0
   -0.0410    0.9167    0.0716 C   0  0  0  0  0  0  0  0  0  0  0  0
   -0.1134    2.5352    0.3534 S   0  0  0  0  0  0  0  0  0  0  0  0
   -1.1927    0.2324   -0.4618 N   0  0  0  0  0  0  0  0  0  0  0  0
   -1.0298   -0.8549   -1.4283 C   0  0  0  0  0  0  0  0  0  0  0  0
   -2.5347    0.5624    0.0224 C   0  0  0  0  0  0  0  0  0  0  0  0
    2.6642    1.6638    0.6858 H   0  0  0  0  0  0  0  0  0  0  0  0
    3.2947    0.0507    0.1924 H   0  0  0  0  0  0  0  0  0  0  0  0
    2.4883    1.1007   -1.0283 H   0  0  0  0  0  0  0  0  0  0  0  0
    1.3671   -1.8954    0.1030 H   0  0  0  0  0  0  0  0  0  0  0  0
    0.1116   -1.3909    1.3084 H   0  0  0  0  0  0  0  0  0  0  0  0
    1.8518   -1.2700    1.7297 H   0  0  0  0  0  0  0  0  0  0  0  0
   -0.0118   -0.8426   -1.8731 H   0  0  0  0  0  0  0  0  0  0  0  0
   -1.7620   -0.7378   -2.2552 H   0  0  0  0  0  0  0  0  0  0  0  0
   -1.2005   -1.8308   -0.9276 H   0  0  0  0  0  0  0  0  0  0  0  0
   -2.5598    0.4991    1.1308 H   0  0  0  0  0  0  0  0  0  0  0  0
   -2.8097    1.5899   -0.2953 H   0  0  0  0  0  0  0  0  0  0  0  0
   -3.2906   -0.1433   -0.3845 H   0  0  0  0  0  0  0  0  0  0  0  0
  1  2  1  0
  2  3  1  0
  2  4  1  0
  4  5  2  0
  4  6  1  0
  6  7  1  0
  6  8  1  0
  1  9  1  0
  1 10  1  0
  1 11  1  0
  3 12  1  0
  3 13  1  0
  3 14  1  0
  7 15  1  0
  7 16  1  0
  7 17  1  0
  8 18  1  0
  8 19  1  0
  8 20  1  0
M  END
