
     RDKit          3D

 18 17  0  0  0  0  0  0  0  0999 V2000
   -2.6473   -0.1342   -0.5428 C   0  0  0  0  0  0  0  0  0  0  0  0
   -2.0192    0.5265    0.6801 C   0  0  0  0  0  0  0  0  0  0  0  0
   -2.2108    1.9139    0.6084 O   0  0  0  0  0  0  0  0  0  0  0  0
   -0.5808    0.2270    0.7288 C   0  0  0  0  0  0  0  0  0  0  0  0
    0.5989   -0.0190    0.7674 C   0  0  0  0  0  0  0  0  0  0  0  0
    2.0386   -0.3201    0.8122 C   0  0  0  0  0  0  0  0  0  0  0  0
    2.6822   -0.0860   -0.5561 C   0  0  0  0  0  0  0  0  0  0  0  0
    2.2493   -1.6397    1.2457 O   0  0  0  0  0  0  0  0  0  0  0  0
   -2.1821    0.2502   -1.4765 H   0  0  0  0  0  0  0  0  0  0  0  0
   -2.5141   -1.2367   -0.4972 H   0  0  0  0  0  0  0  0  0  0  0  0
   -3.7355    0.0868   -0.5704 H   0  0  0  0  0  0  0  0  0  0  0  0
   -2.5055    0.1159    1.5944 H   0  0  0  0  0  0  0  0  0  0  0  0
   -2.0600    2.2724    1.5225 H   0  0  0  0  0  0  0  0  0  0  0  0
    2.5109    0.3675    1.5453 H   0  0  0  0  0  0  0  0  0  0  0  0
    3.7670   -0.3181   -0.5046 H   0  0  0  0  0  0  0  0  0  0  0  0
    2.2137   -0.7351   -1.3273 H   0  0  0  0  0  0  0  0  0  0  0  0
    2.5637    0.9767   -0.8589 H   0  0  0  0  0  0  0  0  0  0  0  0
    1.8312   -2.2481    0.5801 H   0  0  0  0  0  0  0  0  0  0  0  0
  1  2  1  0
  2  3  1  0
  2  4  1  0
  4  5  3  0
  5  6  1  0
  6  7  1  0
  6  8  1  0
  1  9  1  0
  1 10  1  0
  1 11  1  0
  2 12  1  0
  3 13  1  0
  6 14  1  0
  7 15  1  0
  7 16  1  0
  7 17  1  0
  8 18  1  0
M  END
