
     RDKit          3D

 12 11  0  0  0  0  0  0  0  0999 V2000
    1.5022   -0.5310   -0.4887 C   0  0  0  0  0  0  0  0  0  0  0  0
    0.3355   -0.3466    0.8417 S   0  0  0  0  0  6  0  0  0  0  0  0
    0.2989   -1.6169    1.6432 O   0  0  0  0  0  0  0  0  0  0  0  0
    0.7525    0.7863    1.7365 O   0  0  0  0  0  0  0  0  0  0  0  0
   -1.2680   -0.0302    0.1943 C   0  0  0  0  0  0  0  0  0  0  0  0
   -1.5281    1.0951   -0.4719 C   0  0  0  0  0  0  0  0  0  0  0  0
    2.5059   -0.7577   -0.0737 H   0  0  0  0  0  0  0  0  0  0  0  0
    1.1815   -1.3609   -1.1515 H   0  0  0  0  0  0  0  0  0  0  0  0
    1.5509    0.4100   -1.0745 H   0  0  0  0  0  0  0  0  0  0  0  0
   -2.0538   -0.7645    0.3393 H   0  0  0  0  0  0  0  0  0  0  0  0
   -2.5226    1.2752   -0.8666 H   0  0  0  0  0  0  0  0  0  0  0  0
   -0.7551    1.8411   -0.6281 H   0  0  0  0  0  0  0  0  0  0  0  0
  1  2  1  0
  2  3  2  0
  2  4  2  0
  2  5  1  0
  5  6  2  3
  1  7  1  0
  1  8  1  0
  1  9  1  0
  5 10  1  0
  6 11  1  0
  6 12  1  0
M  END
