
     RDKit          3D

 24 24  0  0  0  0  0  0  0  0999 V2000
    3.9589   -0.1394   -0.1543 C   0  0  0  0  0  0  0  0  0  0  0  0
    2.5056    0.3259   -0.1369 C   0  0  0  0  0  0  0  0  0  0  0  0
    1.6338   -0.6162    0.7062 C   0  0  0  0  0  0  0  0  0  0  0  0
    0.1905   -0.1105    0.8553 C   0  0  0  0  0  0  0  0  0  0  0  0
   -0.6111   -0.2207   -0.4479 C   0  0  0  0  0  0  0  0  0  0  0  0
   -2.0372    0.1693   -0.2163 C   0  0  0  0  0  0  0  0  0  0  0  0
   -3.0564   -0.6813    0.1620 C   0  0  0  0  0  0  0  0  0  0  0  0
   -4.1751    0.1144    0.2845 C   0  0  0  0  0  0  0  0  0  0  0  0
   -3.7682    1.3978   -0.0212 C   0  0  0  0  0  0  0  0  0  0  0  0
   -2.4877    1.3987   -0.3128 O   0  0  0  0  0  0  0  0  0  0  0  0
    4.3754   -0.1448    0.8755 H   0  0  0  0  0  0  0  0  0  0  0  0
    4.5635    0.5529   -0.7774 H   0  0  0  0  0  0  0  0  0  0  0  0
    4.0315   -1.1607   -0.5852 H   0  0  0  0  0  0  0  0  0  0  0  0
    2.4638    1.3548    0.2823 H   0  0  0  0  0  0  0  0  0  0  0  0
    2.1351    0.3548   -1.1832 H   0  0  0  0  0  0  0  0  0  0  0  0
    1.6322   -1.6341    0.2578 H   0  0  0  0  0  0  0  0  0  0  0  0
    2.0748   -0.6976    1.7240 H   0  0  0  0  0  0  0  0  0  0  0  0
    0.1945    0.9439    1.2098 H   0  0  0  0  0  0  0  0  0  0  0  0
   -0.3092   -0.7259    1.6360 H   0  0  0  0  0  0  0  0  0  0  0  0
   -0.5723   -1.2632   -0.8325 H   0  0  0  0  0  0  0  0  0  0  0  0
   -0.1846    0.4531   -1.2198 H   0  0  0  0  0  0  0  0  0  0  0  0
   -2.9921   -1.7478    0.3329 H   0  0  0  0  0  0  0  0  0  0  0  0
   -5.1700   -0.2021    0.5676 H   0  0  0  0  0  0  0  0  0  0  0  0
   -4.3958    2.2789   -0.0228 H   0  0  0  0  0  0  0  0  0  0  0  0
  1  2  1  0
  2  3  1  0
  3  4  1  0
  4  5  1  0
  5  6  1  0
  6  7  2  0
  7  8  1  0
  8  9  2  0
  9 10  1  0
 10  6  1  0
  1 11  1  0
  1 12  1  0
  1 13  1  0
  2 14  1  0
  2 15  1  0
  3 16  1  0
  3 17  1  0
  4 18  1  0
  4 19  1  0
  5 20  1  0
  5 21  1  0
  7 22  1  0
  8 23  1  0
  9 24  1  0
M  END
