
     RDKit          3D

 15 15  0  0  0  0  0  0  0  0999 V2000
    1.8582   -1.3028    0.2550 N   0  0  0  0  0  0  0  0  0  0  0  0
    0.5344   -0.7791    0.1133 C   0  0  0  0  0  0  0  0  0  0  0  0
    0.2905    0.6104    0.0084 C   0  0  0  0  0  0  0  0  0  0  0  0
   -1.0246    1.0424   -0.2295 C   0  0  0  0  0  0  0  0  0  0  0  0
   -2.0641    0.1178   -0.3234 C   0  0  0  0  0  0  0  0  0  0  0  0
   -1.7841   -1.2398   -0.1835 C   0  0  0  0  0  0  0  0  0  0  0  0
   -0.5064   -1.6525    0.0218 N   0  0  0  0  0  0  0  0  0  0  0  0
    1.3392    1.5786    0.1726 N   0  0  0  0  0  4  0  0  0  0  0  0
    2.2701    1.4269    1.1742 O   0  0  0  0  0  1  0  0  0  0  0  0
    1.2939    2.6613   -0.4474 O   0  0  0  0  0  0  0  0  0  0  0  0
    2.7061   -0.7182    0.0910 H   0  0  0  0  0  0  0  0  0  0  0  0
    1.9964   -2.3267    0.4061 H   0  0  0  0  0  0  0  0  0  0  0  0
   -1.2488    2.0982   -0.3159 H   0  0  0  0  0  0  0  0  0  0  0  0
   -3.0795    0.4517   -0.4940 H   0  0  0  0  0  0  0  0  0  0  0  0
   -2.5812   -1.9683   -0.2486 H   0  0  0  0  0  0  0  0  0  0  0  0
  1  2  1  0
  2  3  2  0
  3  4  1  0
  4  5  2  0
  5  6  1  0
  6  7  2  0
  3  8  1  0
  8  9  1  0
  8 10  2  0
  7  2  1  0
  1 11  1  0
  1 12  1  0
  4 13  1  0
  5 14  1  0
  6 15  1  0
M  CHG  2   8   1   9  -1
M  END
