
     RDKit          3D

 20 19  0  0  0  0  0  0  0  0999 V2000
    3.0710   -0.7853   -0.8260 C   0  0  0  0  0  0  0  0  0  0  0  0
    2.0865   -0.2082    0.0227 O   0  0  0  0  0  0  0  0  0  0  0  0
    1.3480    0.9214   -0.3413 C   0  0  0  0  0  0  0  0  0  0  0  0
    1.5333    1.4799   -1.4571 O   0  0  0  0  0  0  0  0  0  0  0  0
    0.2992    1.4484    0.5889 C   0  0  0  0  0  0  0  0  0  0  0  0
   -1.1041    0.9742    0.1893 C   0  0  0  0  0  0  0  0  0  0  0  0
   -1.2862   -0.5374    0.3908 C   0  0  0  0  0  0  0  0  0  0  0  0
   -2.7110   -0.9684    0.0490 C   0  0  0  0  0  0  0  0  0  0  0  0
   -2.9079   -2.8789    0.3043 Br  0  0  0  0  0  0  0  0  0  0  0  0
    3.5171   -1.6661   -0.3204 H   0  0  0  0  0  0  0  0  0  0  0  0
    2.6049   -1.1151   -1.7787 H   0  0  0  0  0  0  0  0  0  0  0  0
    3.8728   -0.0461   -1.0361 H   0  0  0  0  0  0  0  0  0  0  0  0
    0.3248    2.5594    0.5662 H   0  0  0  0  0  0  0  0  0  0  0  0
    0.5264    1.1310    1.6297 H   0  0  0  0  0  0  0  0  0  0  0  0
   -1.8450    1.5149    0.8182 H   0  0  0  0  0  0  0  0  0  0  0  0
   -1.3009    1.2415   -0.8726 H   0  0  0  0  0  0  0  0  0  0  0  0
   -0.5781   -1.0915   -0.2626 H   0  0  0  0  0  0  0  0  0  0  0  0
   -1.0716   -0.8002    1.4497 H   0  0  0  0  0  0  0  0  0  0  0  0
   -2.9407   -0.7271   -1.0108 H   0  0  0  0  0  0  0  0  0  0  0  0
   -3.4383   -0.4466    0.7068 H   0  0  0  0  0  0  0  0  0  0  0  0
  1  2  1  0
  2  3  1  0
  3  4  2  0
  3  5  1  0
  5  6  1  0
  6  7  1  0
  7  8  1  0
  8  9  1  0
  1 10  1  0
  1 11  1  0
  1 12  1  0
  5 13  1  0
  5 14  1  0
  6 15  1  0
  6 16  1  0
  7 17  1  0
  7 18  1  0
  8 19  1  0
  8 20  1  0
M  END
