
     RDKit          3D

 21 20  0  0  0  0  0  0  0  0999 V2000
   -3.0486    0.7313   -0.6361 C   0  0  0  0  0  0  0  0  0  0  0  0
   -1.8087   -0.1542   -0.7184 C   0  0  0  0  0  0  0  0  0  0  0  0
   -1.2451   -0.4480    0.6778 C   0  0  0  0  0  0  0  0  0  0  0  0
   -0.0182   -1.3644    0.6118 C   0  0  0  0  0  0  0  0  0  0  0  0
    1.0395   -0.7607   -0.1324 O   0  0  0  0  0  0  0  0  0  0  0  0
    1.8301    0.2837    0.3601 C   0  0  0  0  0  0  0  0  0  0  0  0
    1.6912    0.6961    1.5441 O   0  0  0  0  0  0  0  0  0  0  0  0
    2.8835    0.8797   -0.5132 C   0  0  0  0  0  0  0  0  0  0  0  0
    4.1203    0.1031   -0.3986 C   0  0  0  0  0  0  0  0  0  0  0  0
    5.0976   -0.5101   -0.3084 N   0  0  0  0  0  0  0  0  0  0  0  0
   -3.4333    0.9283   -1.6589 H   0  0  0  0  0  0  0  0  0  0  0  0
   -2.7980    1.7021   -0.1577 H   0  0  0  0  0  0  0  0  0  0  0  0
   -3.8449    0.2269   -0.0482 H   0  0  0  0  0  0  0  0  0  0  0  0
   -2.0805   -1.1076   -1.2217 H   0  0  0  0  0  0  0  0  0  0  0  0
   -1.0412    0.3631   -1.3342 H   0  0  0  0  0  0  0  0  0  0  0  0
   -0.9722    0.5046    1.1809 H   0  0  0  0  0  0  0  0  0  0  0  0
   -2.0253   -0.9482    1.2922 H   0  0  0  0  0  0  0  0  0  0  0  0
   -0.2996   -2.3199    0.1201 H   0  0  0  0  0  0  0  0  0  0  0  0
    0.3298   -1.6065    1.6396 H   0  0  0  0  0  0  0  0  0  0  0  0
    2.5425    0.8698   -1.5697 H   0  0  0  0  0  0  0  0  0  0  0  0
    3.0809    1.9307   -0.2135 H   0  0  0  0  0  0  0  0  0  0  0  0
  1  2  1  0
  2  3  1  0
  3  4  1  0
  4  5  1  0
  5  6  1  0
  6  7  2  0
  6  8  1  0
  8  9  1  0
  9 10  3  0
  1 11  1  0
  1 12  1  0
  1 13  1  0
  2 14  1  0
  2 15  1  0
  3 16  1  0
  3 17  1  0
  4 18  1  0
  4 19  1  0
  8 20  1  0
  8 21  1  0
M  END
