
     RDKit          3D

 15 15  0  0  0  0  0  0  0  0999 V2000
    2.9287   -0.8166    1.2034 Cl  0  0  0  0  0  0  0  0  0  0  0  0
    2.1900    0.1597   -0.0926 C   0  0  0  0  0  0  0  0  0  0  0  0
    2.7774   -0.4111   -1.6762 Cl  0  0  0  0  0  0  0  0  0  0  0  0
    0.6869    0.0752   -0.0255 C   0  0  0  0  0  0  0  0  0  0  0  0
   -0.0802    1.2358    0.1782 C   0  0  0  0  0  0  0  0  0  0  0  0
   -1.4752    1.1583    0.2406 C   0  0  0  0  0  0  0  0  0  0  0  0
   -2.1159   -0.0754    0.1006 C   0  0  0  0  0  0  0  0  0  0  0  0
   -1.3629   -1.2347   -0.1022 C   0  0  0  0  0  0  0  0  0  0  0  0
    0.0320   -1.1625   -0.1654 C   0  0  0  0  0  0  0  0  0  0  0  0
    2.5340    1.2079    0.0369 H   0  0  0  0  0  0  0  0  0  0  0  0
    0.3989    2.2006    0.2889 H   0  0  0  0  0  0  0  0  0  0  0  0
   -2.0598    2.0556    0.3977 H   0  0  0  0  0  0  0  0  0  0  0  0
   -3.1956   -0.1331    0.1492 H   0  0  0  0  0  0  0  0  0  0  0  0
   -1.8602   -2.1899   -0.2106 H   0  0  0  0  0  0  0  0  0  0  0  0
    0.6019   -2.0698   -0.3231 H   0  0  0  0  0  0  0  0  0  0  0  0
  1  2  1  0
  2  3  1  0
  2  4  1  0
  4  5  2  0
  5  6  1  0
  6  7  2  0
  7  8  1  0
  8  9  2  0
  9  4  1  0
  2 10  1  0
  5 11  1  0
  6 12  1  0
  7 13  1  0
  8 14  1  0
  9 15  1  0
M  END
