
     RDKit          3D

 15 14  0  0  0  0  0  0  0  0999 V2000
    3.4843    0.5221    0.2400 Cl  0  0  0  0  0  0  0  0  0  0  0  0
    1.7812    0.4059   -0.2701 C   0  0  0  0  0  0  0  0  0  0  0  0
    1.0003   -0.4728    0.7098 C   0  0  0  0  0  0  0  0  0  0  0  0
   -0.4470   -0.7218    0.2575 C   0  0  0  0  0  0  0  0  0  0  0  0
   -1.3233    0.5311    0.3745 C   0  0  0  0  0  0  0  0  0  0  0  0
   -2.7170    0.2112    0.0463 C   0  0  0  0  0  0  0  0  0  0  0  0
   -3.8164   -0.0409   -0.2126 N   0  0  0  0  0  0  0  0  0  0  0  0
    1.7467   -0.0307   -1.2909 H   0  0  0  0  0  0  0  0  0  0  0  0
    1.3586    1.4313   -0.2972 H   0  0  0  0  0  0  0  0  0  0  0  0
    1.5125   -1.4567    0.7875 H   0  0  0  0  0  0  0  0  0  0  0  0
    1.0077   -0.0079    1.7200 H   0  0  0  0  0  0  0  0  0  0  0  0
   -0.8744   -1.5213    0.9028 H   0  0  0  0  0  0  0  0  0  0  0  0
   -0.4548   -1.0947   -0.7908 H   0  0  0  0  0  0  0  0  0  0  0  0
   -1.2853    0.9291    1.4109 H   0  0  0  0  0  0  0  0  0  0  0  0
   -0.9731    1.3161   -0.3269 H   0  0  0  0  0  0  0  0  0  0  0  0
  1  2  1  0
  2  3  1  0
  3  4  1  0
  4  5  1  0
  5  6  1  0
  6  7  3  0
  2  8  1  0
  2  9  1  0
  3 10  1  0
  3 11  1  0
  4 12  1  0
  4 13  1  0
  5 14  1  0
  5 15  1  0
M  END
