
     RDKit          3D

 20 19  0  0  0  0  0  0  0  0999 V2000
   -3.3421    0.3780   -0.6043 C   0  0  0  0  0  0  0  0  0  0  0  0
   -2.0417    0.5038    0.1739 C   0  0  0  0  0  0  0  0  0  0  0  0
   -0.9728    0.6765   -0.7332 O   0  0  0  0  0  0  0  0  0  0  0  0
    0.2669    0.6618   -0.0501 C   0  0  0  0  0  0  0  0  0  0  0  0
    0.8995   -0.7324   -0.1395 C   0  0  0  0  0  0  0  0  0  0  0  0
    2.2634   -0.7916    0.5577 C   0  0  0  0  0  0  0  0  0  0  0  0
    3.2350    0.0584   -0.1250 N   0  0  0  0  0  0  0  0  0  0  0  0
   -3.5136    1.2936   -1.2092 H   0  0  0  0  0  0  0  0  0  0  0  0
   -4.1906    0.2476    0.1002 H   0  0  0  0  0  0  0  0  0  0  0  0
   -3.2964   -0.5023   -1.2801 H   0  0  0  0  0  0  0  0  0  0  0  0
   -2.1213    1.3856    0.8490 H   0  0  0  0  0  0  0  0  0  0  0  0
   -1.9092   -0.4192    0.7830 H   0  0  0  0  0  0  0  0  0  0  0  0
    0.9355    1.3908   -0.5550 H   0  0  0  0  0  0  0  0  0  0  0  0
    0.1936    0.9879    1.0155 H   0  0  0  0  0  0  0  0  0  0  0  0
    1.0128   -1.0224   -1.2069 H   0  0  0  0  0  0  0  0  0  0  0  0
    0.2256   -1.4719    0.3435 H   0  0  0  0  0  0  0  0  0  0  0  0
    2.1570   -0.4614    1.6145 H   0  0  0  0  0  0  0  0  0  0  0  0
    2.6257   -1.8439    0.5626 H   0  0  0  0  0  0  0  0  0  0  0  0
    3.4495   -0.3711   -1.0545 H   0  0  0  0  0  0  0  0  0  0  0  0
    4.1232    0.0322    0.4263 H   0  0  0  0  0  0  0  0  0  0  0  0
  1  2  1  0
  2  3  1  0
  3  4  1  0
  4  5  1  0
  5  6  1  0
  6  7  1  0
  1  8  1  0
  1  9  1  0
  1 10  1  0
  2 11  1  0
  2 12  1  0
  4 13  1  0
  4 14  1  0
  5 15  1  0
  5 16  1  0
  6 17  1  0
  6 18  1  0
  7 19  1  0
  7 20  1  0
M  END
