
     RDKit          3D

 12 11  0  0  0  0  0  0  0  0999 V2000
    1.9016   -0.0462   -0.4862 N   0  0  0  0  0  0  0  0  0  0  0  0
    0.6491    0.6383   -0.5103 C   0  0  0  0  0  0  0  0  0  0  0  0
    0.3698    1.3862   -1.4858 O   0  0  0  0  0  0  0  0  0  0  0  0
   -0.3506    0.4233    0.5933 C   0  0  0  0  0  0  0  0  0  0  0  0
   -1.4212    2.0198    0.9075 Br  0  0  0  0  0  0  0  0  0  0  0  0
   -1.2397   -0.7943    0.3161 C   0  0  0  0  0  0  0  0  0  0  0  0
   -2.3071   -0.6031   -1.2994 Br  0  0  0  0  0  0  0  0  0  0  0  0
    2.1404   -0.6943    0.2969 H   0  0  0  0  0  0  0  0  0  0  0  0
    2.5910    0.0893   -1.2586 H   0  0  0  0  0  0  0  0  0  0  0  0
    0.2049    0.2346    1.5371 H   0  0  0  0  0  0  0  0  0  0  0  0
   -0.6095   -1.7038    0.2163 H   0  0  0  0  0  0  0  0  0  0  0  0
   -1.9287   -0.9497    1.1730 H   0  0  0  0  0  0  0  0  0  0  0  0
  1  2  1  0
  2  3  2  0
  2  4  1  0
  4  5  1  0
  4  6  1  0
  6  7  1  0
  1  8  1  0
  1  9  1  0
  4 10  1  0
  6 11  1  0
  6 12  1  0
M  END
