
     RDKit          3D

 20 19  0  0  0  0  0  0  0  0999 V2000
    2.9587   -0.2696    0.5915 C   0  0  0  0  0  0  0  0  0  0  0  0
    1.8592   -0.1088   -0.4591 C   0  0  0  0  0  0  0  0  0  0  0  0
    0.4602    0.0537    0.1714 C   0  0  0  0  0  0  0  0  0  0  0  0
    0.3754    1.7515    1.1432 Br  0  0  0  0  0  0  0  0  0  0  0  0
   -0.6518   -0.0735   -0.9074 C   0  0  0  0  0  0  0  0  0  0  0  0
   -0.8003    1.5065   -2.0446 Br  0  0  0  0  0  0  0  0  0  0  0  0
   -2.0269   -0.5050   -0.3529 C   0  0  0  0  0  0  0  0  0  0  0  0
   -2.6646    0.4770    0.6295 C   0  0  0  0  0  0  0  0  0  0  0  0
    3.9307   -0.4459    0.0845 H   0  0  0  0  0  0  0  0  0  0  0  0
    3.0522    0.6463    1.2108 H   0  0  0  0  0  0  0  0  0  0  0  0
    2.7419   -1.1381    1.2491 H   0  0  0  0  0  0  0  0  0  0  0  0
    2.0899    0.7703   -1.0988 H   0  0  0  0  0  0  0  0  0  0  0  0
    1.8795   -1.0147   -1.1033 H   0  0  0  0  0  0  0  0  0  0  0  0
    0.3201   -0.7625    0.9138 H   0  0  0  0  0  0  0  0  0  0  0  0
   -0.3590   -0.8906   -1.6027 H   0  0  0  0  0  0  0  0  0  0  0  0
   -1.9291   -1.4943    0.1450 H   0  0  0  0  0  0  0  0  0  0  0  0
   -2.7223   -0.6409   -1.2097 H   0  0  0  0  0  0  0  0  0  0  0  0
   -2.6691    1.5082    0.2196 H   0  0  0  0  0  0  0  0  0  0  0  0
   -3.7157    0.1738    0.8196 H   0  0  0  0  0  0  0  0  0  0  0  0
   -2.1291    0.4567    1.6005 H   0  0  0  0  0  0  0  0  0  0  0  0
  1  2  1  0
  2  3  1  0
  3  4  1  0
  3  5  1  0
  5  6  1  0
  5  7  1  0
  7  8  1  0
  1  9  1  0
  1 10  1  0
  1 11  1  0
  2 12  1  0
  2 13  1  0
  3 14  1  0
  5 15  1  0
  7 16  1  0
  7 17  1  0
  8 18  1  0
  8 19  1  0
  8 20  1  0
M  END
