
     RDKit          3D

 16 16  0  0  0  0  0  0  0  0999 V2000
    2.4456    0.2620   -1.1562 O   0  0  0  0  0  0  0  0  0  0  0  0
    1.8853   -0.5776   -0.1861 C   0  0  0  0  0  0  0  0  0  0  0  0
    0.4381   -0.2143    0.0142 C   0  0  0  0  0  0  0  0  0  0  0  0
   -0.5640   -1.0101   -0.5690 C   0  0  0  0  0  0  0  0  0  0  0  0
   -1.9123   -0.6776   -0.4138 C   0  0  0  0  0  0  0  0  0  0  0  0
   -2.2743    0.4560    0.3156 C   0  0  0  0  0  0  0  0  0  0  0  0
   -1.2888    1.2633    0.8879 C   0  0  0  0  0  0  0  0  0  0  0  0
    0.0656    0.9397    0.7387 C   0  0  0  0  0  0  0  0  0  0  0  0
    1.2659    2.0043    1.4640 Cl  0  0  0  0  0  0  0  0  0  0  0  0
    3.3992   -0.0025   -1.2320 H   0  0  0  0  0  0  0  0  0  0  0  0
    1.9814   -1.6383   -0.5104 H   0  0  0  0  0  0  0  0  0  0  0  0
    2.4368   -0.4736    0.7746 H   0  0  0  0  0  0  0  0  0  0  0  0
   -0.3028   -1.8896   -1.1444 H   0  0  0  0  0  0  0  0  0  0  0  0
   -2.6772   -1.2985   -0.8621 H   0  0  0  0  0  0  0  0  0  0  0  0
   -3.3193    0.7122    0.4335 H   0  0  0  0  0  0  0  0  0  0  0  0
   -1.5792    2.1447    1.4455 H   0  0  0  0  0  0  0  0  0  0  0  0
  1  2  1  0
  2  3  1  0
  3  4  2  0
  4  5  1  0
  5  6  2  0
  6  7  1  0
  7  8  2  0
  8  9  1  0
  8  3  1  0
  1 10  1  0
  2 11  1  0
  2 12  1  0
  4 13  1  0
  5 14  1  0
  6 15  1  0
  7 16  1  0
M  END
