
     RDKit          3D

 16 16  0  0  0  0  0  0  0  0999 V2000
   -1.6543   -2.5467   -0.9470 Cl  0  0  0  0  0  0  0  0  0  0  0  0
   -0.7359   -1.1245   -0.4430 C   0  0  0  0  0  0  0  0  0  0  0  0
   -1.4099    0.0439   -0.0358 C   0  0  0  0  0  0  0  0  0  0  0  0
   -0.6693    1.1579    0.4041 C   0  0  0  0  0  0  0  0  0  0  0  0
    0.7352    1.1044    0.4379 C   0  0  0  0  0  0  0  0  0  0  0  0
    1.6501    2.4885    1.0434 Cl  0  0  0  0  0  0  0  0  0  0  0  0
    1.4094   -0.0624    0.0289 C   0  0  0  0  0  0  0  0  0  0  0  0
    0.6688   -1.1765   -0.4134 C   0  0  0  0  0  0  0  0  0  0  0  0
    1.5035   -2.6270   -0.9785 Cl  0  0  0  0  0  0  0  0  0  0  0  0
    2.8437   -0.1131    0.0595 N   0  0  0  0  0  4  0  0  0  0  0  0
    3.5863    0.8598   -0.5684 O   0  0  0  0  0  1  0  0  0  0  0  0
    3.4301   -1.0359    0.6616 O   0  0  0  0  0  0  0  0  0  0  0  0
   -1.5005    2.6458    0.8674 Cl  0  0  0  0  0  0  0  0  0  0  0  0
   -2.8442    0.0989   -0.0648 N   0  0  0  0  0  4  0  0  0  0  0  0
   -3.5478    0.4616    1.0602 O   0  0  0  0  0  1  0  0  0  0  0  0
   -3.4653   -0.1748   -1.1122 O   0  0  0  0  0  0  0  0  0  0  0  0
  1  2  1  0
  2  3  2  0
  3  4  1  0
  4  5  2  0
  5  6  1  0
  5  7  1  0
  7  8  2  0
  8  9  1  0
  7 10  1  0
 10 11  1  0
 10 12  2  0
  4 13  1  0
  3 14  1  0
 14 15  1  0
 14 16  2  0
  8  2  1  0
M  CHG  4  10   1  11  -1  14   1  15  -1
M  END
