
     RDKit          3D

 21 20  0  0  0  0  0  0  0  0999 V2000
   -3.9211    1.1820   -1.0578 Br  0  0  0  0  0  0  0  0  0  0  0  0
   -3.4316   -0.0136    0.3913 C   0  0  0  0  0  0  0  0  0  0  0  0
   -2.0944   -0.7069    0.1210 C   0  0  0  0  0  0  0  0  0  0  0  0
   -0.9104    0.2645    0.2265 C   0  0  0  0  0  0  0  0  0  0  0  0
    0.4186   -0.4617   -0.0135 C   0  0  0  0  0  0  0  0  0  0  0  0
    1.6026    0.5071    0.0899 C   0  0  0  0  0  0  0  0  0  0  0  0
    2.9281   -0.2200   -0.1499 C   0  0  0  0  0  0  0  0  0  0  0  0
    4.0521    0.7174   -0.0484 C   0  0  0  0  0  0  0  0  0  0  0  0
    4.9389    1.4567    0.0316 N   0  0  0  0  0  0  0  0  0  0  0  0
   -4.2280   -0.7822    0.4816 H   0  0  0  0  0  0  0  0  0  0  0  0
   -3.3901    0.5561    1.3441 H   0  0  0  0  0  0  0  0  0  0  0  0
   -1.9644   -1.5198    0.8686 H   0  0  0  0  0  0  0  0  0  0  0  0
   -2.1182   -1.1700   -0.8895 H   0  0  0  0  0  0  0  0  0  0  0  0
   -0.9001    0.7233    1.2398 H   0  0  0  0  0  0  0  0  0  0  0  0
   -1.0234    1.0744   -0.5263 H   0  0  0  0  0  0  0  0  0  0  0  0
    0.4078   -0.9227   -1.0259 H   0  0  0  0  0  0  0  0  0  0  0  0
    0.5379   -1.2699    0.7417 H   0  0  0  0  0  0  0  0  0  0  0  0
    1.6129    0.9684    1.1027 H   0  0  0  0  0  0  0  0  0  0  0  0
    1.4835    1.3153   -0.6660 H   0  0  0  0  0  0  0  0  0  0  0  0
    3.0645   -1.0225    0.6062 H   0  0  0  0  0  0  0  0  0  0  0  0
    2.9348   -0.6756   -1.1631 H   0  0  0  0  0  0  0  0  0  0  0  0
  1  2  1  0
  2  3  1  0
  3  4  1  0
  4  5  1  0
  5  6  1  0
  6  7  1  0
  7  8  1  0
  8  9  3  0
  2 10  1  0
  2 11  1  0
  3 12  1  0
  3 13  1  0
  4 14  1  0
  4 15  1  0
  5 16  1  0
  5 17  1  0
  6 18  1  0
  6 19  1  0
  7 20  1  0
  7 21  1  0
M  END
