
     RDKit          3D

 25 25  0  0  0  0  0  0  0  0999 V2000
    3.7294    0.7552   -0.5449 C   0  0  0  0  0  0  0  0  0  0  0  0
    2.7410   -0.3175   -0.0966 C   0  0  0  0  0  0  0  0  0  0  0  0
    1.2968    0.1971   -0.1638 C   0  0  0  0  0  0  0  0  0  0  0  0
    0.2855   -0.8889    0.2611 C   0  0  0  0  0  0  0  0  0  0  0  0
    0.4891   -1.3022    1.5908 O   0  0  0  0  0  0  0  0  0  0  0  0
   -1.1426   -0.4182    0.0638 C   0  0  0  0  0  0  0  0  0  0  0  0
   -1.6587    0.6616    0.8063 C   0  0  0  0  0  0  0  0  0  0  0  0
   -2.9751    1.0901    0.6104 C   0  0  0  0  0  0  0  0  0  0  0  0
   -3.7887    0.4498   -0.3269 C   0  0  0  0  0  0  0  0  0  0  0  0
   -3.2871   -0.6200   -1.0717 C   0  0  0  0  0  0  0  0  0  0  0  0
   -1.9714   -1.0528   -0.8800 C   0  0  0  0  0  0  0  0  0  0  0  0
    3.6547    1.6475    0.1125 H   0  0  0  0  0  0  0  0  0  0  0  0
    3.5243    1.0545   -1.5949 H   0  0  0  0  0  0  0  0  0  0  0  0
    4.7638    0.3558   -0.4853 H   0  0  0  0  0  0  0  0  0  0  0  0
    2.9870   -0.6168    0.9452 H   0  0  0  0  0  0  0  0  0  0  0  0
    2.8539   -1.2067   -0.7545 H   0  0  0  0  0  0  0  0  0  0  0  0
    1.0725    0.5082   -1.2083 H   0  0  0  0  0  0  0  0  0  0  0  0
    1.1944    1.0908    0.4900 H   0  0  0  0  0  0  0  0  0  0  0  0
    0.4633   -1.7767   -0.3852 H   0  0  0  0  0  0  0  0  0  0  0  0
    0.5038   -0.4944    2.1671 H   0  0  0  0  0  0  0  0  0  0  0  0
   -1.0449    1.1761    1.5340 H   0  0  0  0  0  0  0  0  0  0  0  0
   -3.3642    1.9207    1.1851 H   0  0  0  0  0  0  0  0  0  0  0  0
   -4.8073    0.7835   -0.4772 H   0  0  0  0  0  0  0  0  0  0  0  0
   -3.9181   -1.1143   -1.7991 H   0  0  0  0  0  0  0  0  0  0  0  0
   -1.6014   -1.8824   -1.4695 H   0  0  0  0  0  0  0  0  0  0  0  0
  1  2  1  0
  2  3  1  0
  3  4  1  0
  4  5  1  0
  4  6  1  0
  6  7  2  0
  7  8  1  0
  8  9  2  0
  9 10  1  0
 10 11  2  0
 11  6  1  0
  1 12  1  0
  1 13  1  0
  1 14  1  0
  2 15  1  0
  2 16  1  0
  3 17  1  0
  3 18  1  0
  4 19  1  0
  5 20  1  0
  7 21  1  0
  8 22  1  0
  9 23  1  0
 10 24  1  0
 11 25  1  0
M  END
