
     RDKit          3D

 27 26  0  0  0  0  0  0  0  0999 V2000
   -3.9906    1.1130    0.0247 O   0  0  0  0  0  0  0  0  0  0  0  0
   -3.9666   -0.2835    0.1518 C   0  0  0  0  0  0  0  0  0  0  0  0
   -2.7147   -0.8726   -0.5074 C   0  0  0  0  0  0  0  0  0  0  0  0
   -1.4297   -0.3972    0.1840 C   0  0  0  0  0  0  0  0  0  0  0  0
   -0.1892   -1.0126   -0.4811 C   0  0  0  0  0  0  0  0  0  0  0  0
    1.1137   -0.6741    0.2616 C   0  0  0  0  0  0  0  0  0  0  0  0
    1.5366    0.7936    0.0748 C   0  0  0  0  0  0  0  0  0  0  0  0
    2.8629    1.1201    0.7846 C   0  0  0  0  0  0  0  0  0  0  0  0
    4.1016    0.5837    0.0575 C   0  0  0  0  0  0  0  0  0  0  0  0
    4.4047    1.5090   -1.6223 Br  0  0  0  0  0  0  0  0  0  0  0  0
   -4.2330    1.3081   -0.9181 H   0  0  0  0  0  0  0  0  0  0  0  0
   -3.9816   -0.5476    1.2308 H   0  0  0  0  0  0  0  0  0  0  0  0
   -4.8763   -0.7260   -0.3137 H   0  0  0  0  0  0  0  0  0  0  0  0
   -2.6945   -0.5834   -1.5811 H   0  0  0  0  0  0  0  0  0  0  0  0
   -2.7757   -1.9814   -0.4500 H   0  0  0  0  0  0  0  0  0  0  0  0
   -1.4598   -0.6922    1.2559 H   0  0  0  0  0  0  0  0  0  0  0  0
   -1.3758    0.7100    0.1214 H   0  0  0  0  0  0  0  0  0  0  0  0
   -0.1191   -0.6751   -1.5386 H   0  0  0  0  0  0  0  0  0  0  0  0
   -0.3000   -2.1193   -0.4888 H   0  0  0  0  0  0  0  0  0  0  0  0
    0.9996   -0.9021    1.3440 H   0  0  0  0  0  0  0  0  0  0  0  0
    1.9070   -1.3389   -0.1387 H   0  0  0  0  0  0  0  0  0  0  0  0
    1.6077    1.0352   -1.0071 H   0  0  0  0  0  0  0  0  0  0  0  0
    0.7571    1.4521    0.5121 H   0  0  0  0  0  0  0  0  0  0  0  0
    2.9596    2.2240    0.8733 H   0  0  0  0  0  0  0  0  0  0  0  0
    2.8414    0.7118    1.8186 H   0  0  0  0  0  0  0  0  0  0  0  0
    4.0214   -0.5059   -0.1289 H   0  0  0  0  0  0  0  0  0  0  0  0
    4.9933    0.7512    0.6977 H   0  0  0  0  0  0  0  0  0  0  0  0
  1  2  1  0
  2  3  1  0
  3  4  1  0
  4  5  1  0
  5  6  1  0
  6  7  1  0
  7  8  1  0
  8  9  1  0
  9 10  1  0
  1 11  1  0
  2 12  1  0
  2 13  1  0
  3 14  1  0
  3 15  1  0
  4 16  1  0
  4 17  1  0
  5 18  1  0
  5 19  1  0
  6 20  1  0
  6 21  1  0
  7 22  1  0
  7 23  1  0
  8 24  1  0
  8 25  1  0
  9 26  1  0
  9 27  1  0
M  END
