
     RDKit          3D

 16 16  0  0  0  0  0  0  0  0999 V2000
   -1.3784   -1.6850    0.6010 N   0  0  0  0  0  0  0  0  0  0  0  0
   -0.3320   -0.7613    0.2740 C   0  0  0  0  0  0  0  0  0  0  0  0
    0.9918   -1.0930    0.6042 C   0  0  0  0  0  0  0  0  0  0  0  0
    2.0295   -0.1861    0.3793 C   0  0  0  0  0  0  0  0  0  0  0  0
    1.7555    1.0647   -0.1755 C   0  0  0  0  0  0  0  0  0  0  0  0
    2.7616    1.9486   -0.3888 F   0  0  0  0  0  0  0  0  0  0  0  0
    0.4457    1.4043   -0.5217 C   0  0  0  0  0  0  0  0  0  0  0  0
   -0.6080    0.4957   -0.3206 C   0  0  0  0  0  0  0  0  0  0  0  0
   -1.9318    0.8556   -0.7479 N   0  0  0  0  0  4  0  0  0  0  0  0
   -2.3275    2.1731   -0.7188 O   0  0  0  0  0  1  0  0  0  0  0  0
   -2.6484    0.0258   -1.3444 O   0  0  0  0  0  0  0  0  0  0  0  0
    3.3015   -0.5183    0.7120 F   0  0  0  0  0  0  0  0  0  0  0  0
   -2.3821   -1.4022    0.6095 H   0  0  0  0  0  0  0  0  0  0  0  0
   -1.1485   -2.6411    0.9533 H   0  0  0  0  0  0  0  0  0  0  0  0
    1.2159   -2.0511    1.0565 H   0  0  0  0  0  0  0  0  0  0  0  0
    0.2551    2.3702   -0.9722 H   0  0  0  0  0  0  0  0  0  0  0  0
  1  2  1  0
  2  3  2  0
  3  4  1  0
  4  5  2  0
  5  6  1  0
  5  7  1  0
  7  8  2  0
  8  9  1  0
  9 10  1  0
  9 11  2  0
  4 12  1  0
  8  2  1  0
  1 13  1  0
  1 14  1  0
  3 15  1  0
  7 16  1  0
M  CHG  2   9   1  10  -1
M  END
