
     RDKit          3D

 20 20  0  0  0  0  0  0  0  0999 V2000
   -2.4914   -0.7072    2.2043 O   0  0  0  0  0  0  0  0  0  0  0  0
   -2.5618   -0.1401    0.9265 C   0  0  0  0  0  0  0  0  0  0  0  0
   -1.2046   -0.1893    0.2859 C   0  0  0  0  0  0  0  0  0  0  0  0
   -0.8171   -1.3094   -0.4590 C   0  0  0  0  0  0  0  0  0  0  0  0
    0.4533   -1.3684   -1.0327 C   0  0  0  0  0  0  0  0  0  0  0  0
    1.3679   -0.3146   -0.8633 C   0  0  0  0  0  0  0  0  0  0  0  0
    1.0027    0.7969   -0.0629 C   0  0  0  0  0  0  0  0  0  0  0  0
   -0.2877    0.8509    0.4922 C   0  0  0  0  0  0  0  0  0  0  0  0
    1.9387    1.8436    0.2442 N   0  0  0  0  0  4  0  0  0  0  0  0
    1.4878    3.1192    0.4949 O   0  0  0  0  0  1  0  0  0  0  0  0
    3.1345    1.5712    0.4774 O   0  0  0  0  0  0  0  0  0  0  0  0
    2.6306   -0.3620   -1.5486 N   0  0  0  0  0  4  0  0  0  0  0  0
    3.1404    0.7719   -2.1384 O   0  0  0  0  0  1  0  0  0  0  0  0
    3.1801   -1.4593   -1.7782 O   0  0  0  0  0  0  0  0  0  0  0  0
   -3.4074   -0.6494    2.5819 H   0  0  0  0  0  0  0  0  0  0  0  0
   -3.2974   -0.6987    0.3050 H   0  0  0  0  0  0  0  0  0  0  0  0
   -2.9098    0.9149    0.9997 H   0  0  0  0  0  0  0  0  0  0  0  0
   -1.5039   -2.1339   -0.6064 H   0  0  0  0  0  0  0  0  0  0  0  0
    0.7156   -2.2291   -1.6350 H   0  0  0  0  0  0  0  0  0  0  0  0
   -0.5706    1.6929    1.1124 H   0  0  0  0  0  0  0  0  0  0  0  0
  1  2  1  0
  2  3  1  0
  3  4  2  0
  4  5  1  0
  5  6  2  0
  6  7  1  0
  7  8  2  0
  7  9  1  0
  9 10  1  0
  9 11  2  0
  6 12  1  0
 12 13  1  0
 12 14  2  0
  8  3  1  0
  1 15  1  0
  2 16  1  0
  2 17  1  0
  4 18  1  0
  5 19  1  0
  8 20  1  0
M  CHG  4   9   1  10  -1  12   1  13  -1
M  END
