
     RDKit          3D

 16 16  0  0  0  0  0  0  0  0999 V2000
    2.5873   -2.1164   -0.6444 O   0  0  0  0  0  1  0  0  0  0  0  0
    2.5067   -0.7721   -0.3608 N   0  0  0  0  0  4  0  0  0  0  0  0
    3.5609   -0.1051   -0.3082 O   0  0  0  0  0  0  0  0  0  0  0  0
    1.2302   -0.1477   -0.1294 C   0  0  0  0  0  0  0  0  0  0  0  0
    1.1472    1.2257    0.1603 C   0  0  0  0  0  0  0  0  0  0  0  0
   -0.0923    1.8273    0.3840 C   0  0  0  0  0  0  0  0  0  0  0  0
   -1.2631    1.0700    0.3222 C   0  0  0  0  0  0  0  0  0  0  0  0
   -1.2073   -0.3052    0.0342 C   0  0  0  0  0  0  0  0  0  0  0  0
    0.0457   -0.9049   -0.1902 C   0  0  0  0  0  0  0  0  0  0  0  0
   -2.4126   -1.0901   -0.0306 N   0  0  0  0  0  4  0  0  0  0  0  0
   -2.3574   -2.4360   -0.3124 O   0  0  0  0  0  1  0  0  0  0  0  0
   -3.5272   -0.5632    0.1677 O   0  0  0  0  0  0  0  0  0  0  0  0
    2.0405    1.8346    0.2140 H   0  0  0  0  0  0  0  0  0  0  0  0
   -0.1458    2.8854    0.6064 H   0  0  0  0  0  0  0  0  0  0  0  0
   -2.2120    1.5598    0.4995 H   0  0  0  0  0  0  0  0  0  0  0  0
    0.0991   -1.9623   -0.4124 H   0  0  0  0  0  0  0  0  0  0  0  0
  1  2  1  0
  2  3  2  0
  2  4  1  0
  4  5  2  0
  5  6  1  0
  6  7  2  0
  7  8  1  0
  8  9  2  0
  8 10  1  0
 10 11  1  0
 10 12  2  0
  9  4  1  0
  5 13  1  0
  6 14  1  0
  7 15  1  0
  9 16  1  0
M  CHG  4   1  -1   2   1  10   1  11  -1
M  END
