
     RDKit          3D

 19 19  0  0  0  0  0  0  0  0999 V2000
    3.7731    0.5094   -0.1358 C   0  0  0  0  0  0  0  0  0  0  0  0
    2.3530    0.5906   -0.1465 O   0  0  0  0  0  0  0  0  0  0  0  0
    1.5327   -0.4669    0.2618 C   0  0  0  0  0  0  0  0  0  0  0  0
    2.0484   -1.5480    0.6603 O   0  0  0  0  0  0  0  0  0  0  0  0
    0.0612   -0.3151    0.2252 C   0  0  0  0  0  0  0  0  0  0  0  0
   -0.7802   -1.3674    0.6318 C   0  0  0  0  0  0  0  0  0  0  0  0
   -2.1699   -1.2174    0.5948 C   0  0  0  0  0  0  0  0  0  0  0  0
   -2.7375   -0.0190    0.1530 C   0  0  0  0  0  0  0  0  0  0  0  0
   -4.1237    0.1157    0.1217 O   0  0  0  0  0  0  0  0  0  0  0  0
   -1.9079    1.0337   -0.2536 C   0  0  0  0  0  0  0  0  0  0  0  0
   -0.5177    0.8876   -0.2181 C   0  0  0  0  0  0  0  0  0  0  0  0
    4.1121   -0.3112   -0.8030 H   0  0  0  0  0  0  0  0  0  0  0  0
    4.1957    1.4677   -0.5013 H   0  0  0  0  0  0  0  0  0  0  0  0
    4.1357    0.3271    0.8980 H   0  0  0  0  0  0  0  0  0  0  0  0
   -0.3658   -2.3059    0.9782 H   0  0  0  0  0  0  0  0  0  0  0  0
   -2.8067   -2.0342    0.9102 H   0  0  0  0  0  0  0  0  0  0  0  0
   -4.5655    0.9716   -0.1933 H   0  0  0  0  0  0  0  0  0  0  0  0
   -2.3389    1.9654   -0.5972 H   0  0  0  0  0  0  0  0  0  0  0  0
    0.1018    1.7161   -0.5376 H   0  0  0  0  0  0  0  0  0  0  0  0
  1  2  1  0
  2  3  1  0
  3  4  2  0
  3  5  1  0
  5  6  2  0
  6  7  1  0
  7  8  2  0
  8  9  1  0
  8 10  1  0
 10 11  2  0
 11  5  1  0
  1 12  1  0
  1 13  1  0
  1 14  1  0
  6 15  1  0
  7 16  1  0
  9 17  1  0
 10 18  1  0
 11 19  1  0
M  END
