
     RDKit          3D

 19 18  0  0  0  0  0  0  0  0999 V2000
   -3.2187    0.7040    0.4154 C   0  0  0  0  0  0  0  0  0  0  0  0
   -2.2451   -0.4280    0.1261 C   0  0  0  0  0  0  0  0  0  0  0  0
   -0.9457   -0.0196    0.4780 O   0  0  0  0  0  0  0  0  0  0  0  0
    0.1238   -1.3005    0.1717 S   0  0  0  0  0  6  0  0  0  0  0  0
   -0.2309   -2.4738    1.0422 O   0  0  0  0  0  0  0  0  0  0  0  0
    0.0533   -1.7169   -1.2727 O   0  0  0  0  0  0  0  0  0  0  0  0
    1.7057   -0.8238    0.5441 O   0  0  0  0  0  0  0  0  0  0  0  0
    1.9950    0.3489   -0.1769 C   0  0  0  0  0  0  0  0  0  0  0  0
    3.4305    0.7656    0.1036 C   0  0  0  0  0  0  0  0  0  0  0  0
   -2.9434    1.6028   -0.1764 H   0  0  0  0  0  0  0  0  0  0  0  0
   -3.1959    0.9581    1.4964 H   0  0  0  0  0  0  0  0  0  0  0  0
   -4.2487    0.3933    0.1401 H   0  0  0  0  0  0  0  0  0  0  0  0
   -2.5565   -1.3148    0.7221 H   0  0  0  0  0  0  0  0  0  0  0  0
   -2.3026   -0.6661   -0.9594 H   0  0  0  0  0  0  0  0  0  0  0  0
    1.8909    0.1784   -1.2720 H   0  0  0  0  0  0  0  0  0  0  0  0
    1.3250    1.1792    0.1388 H   0  0  0  0  0  0  0  0  0  0  0  0
    3.6696    1.6923   -0.4596 H   0  0  0  0  0  0  0  0  0  0  0  0
    3.5652    0.9591    1.1891 H   0  0  0  0  0  0  0  0  0  0  0  0
    4.1285   -0.0384   -0.2129 H   0  0  0  0  0  0  0  0  0  0  0  0
  1  2  1  0
  2  3  1  0
  3  4  1  0
  4  5  2  0
  4  6  2  0
  4  7  1  0
  7  8  1  0
  8  9  1  0
  1 10  1  0
  1 11  1  0
  1 12  1  0
  2 13  1  0
  2 14  1  0
  8 15  1  0
  8 16  1  0
  9 17  1  0
  9 18  1  0
  9 19  1  0
M  END
