
     RDKit          3D

 22 22  0  0  0  0  0  0  0  0999 V2000
   -2.5631    1.1651    0.5392 C   0  0  0  0  0  0  0  0  0  0  0  0
   -1.7816   -0.0688    0.3892 N   0  0  0  0  0  0  0  0  0  0  0  0
   -2.4599   -1.3613    0.5487 C   0  0  0  0  0  0  0  0  0  0  0  0
   -0.3621   -0.0119    0.0882 C   0  0  0  0  0  0  0  0  0  0  0  0
    0.4795   -1.1122    0.3542 C   0  0  0  0  0  0  0  0  0  0  0  0
    1.8457   -1.0561    0.0643 C   0  0  0  0  0  0  0  0  0  0  0  0
    2.4058    0.1001   -0.4991 C   0  0  0  0  0  0  0  0  0  0  0  0
    3.8448    0.1769   -0.8118 C   0  0  0  0  0  0  0  0  0  0  0  0
    4.6134   -0.7945   -0.5820 O   0  0  0  0  0  0  0  0  0  0  0  0
    1.5789    1.1981   -0.7674 C   0  0  0  0  0  0  0  0  0  0  0  0
    0.2126    1.1450   -0.4780 C   0  0  0  0  0  0  0  0  0  0  0  0
   -3.5662    0.9646    0.9714 H   0  0  0  0  0  0  0  0  0  0  0  0
   -2.0384    1.8636    1.2252 H   0  0  0  0  0  0  0  0  0  0  0  0
   -2.7024    1.6463   -0.4514 H   0  0  0  0  0  0  0  0  0  0  0  0
   -2.1486   -1.8355    1.5028 H   0  0  0  0  0  0  0  0  0  0  0  0
   -3.5642   -1.2452    0.5633 H   0  0  0  0  0  0  0  0  0  0  0  0
   -2.2063   -2.0285   -0.3023 H   0  0  0  0  0  0  0  0  0  0  0  0
    0.0913   -2.0185    0.7974 H   0  0  0  0  0  0  0  0  0  0  0  0
    2.4635   -1.9181    0.2836 H   0  0  0  0  0  0  0  0  0  0  0  0
    4.2568    1.0789   -1.2462 H   0  0  0  0  0  0  0  0  0  0  0  0
    1.9906    2.1000   -1.2044 H   0  0  0  0  0  0  0  0  0  0  0  0
   -0.3899    2.0118   -0.7112 H   0  0  0  0  0  0  0  0  0  0  0  0
  1  2  1  0
  2  3  1  0
  2  4  1  0
  4  5  2  0
  5  6  1  0
  6  7  2  0
  7  8  1  0
  8  9  2  0
  7 10  1  0
 10 11  2  0
 11  4  1  0
  1 12  1  0
  1 13  1  0
  1 14  1  0
  3 15  1  0
  3 16  1  0
  3 17  1  0
  5 18  1  0
  6 19  1  0
  8 20  1  0
 10 21  1  0
 11 22  1  0
M  END
