
     RDKit          3D

 20 21  0  0  0  0  0  0  0  0999 V2000
   -3.5083    1.6262    0.4172 O   0  0  0  0  0  0  0  0  0  0  0  0
   -2.2489    1.6534    0.3804 C   0  0  0  0  0  0  0  0  0  0  0  0
   -1.4671    0.4135    0.1249 C   0  0  0  0  0  0  0  0  0  0  0  0
   -2.1753   -0.7884   -0.0746 C   0  0  0  0  0  0  0  0  0  0  0  0
   -1.5084   -1.9865   -0.3187 C   0  0  0  0  0  0  0  0  0  0  0  0
   -0.1195   -2.0189   -0.3704 C   0  0  0  0  0  0  0  0  0  0  0  0
    0.6224   -0.8471   -0.1776 C   0  0  0  0  0  0  0  0  0  0  0  0
    2.0243   -0.9000   -0.2335 C   0  0  0  0  0  0  0  0  0  0  0  0
    2.7807    0.2548   -0.0442 C   0  0  0  0  0  0  0  0  0  0  0  0
    2.1482    1.4708    0.2021 C   0  0  0  0  0  0  0  0  0  0  0  0
    0.7541    1.5442    0.2616 C   0  0  0  0  0  0  0  0  0  0  0  0
   -0.0409    0.3888    0.0734 C   0  0  0  0  0  0  0  0  0  0  0  0
   -1.7746    2.6067    0.5412 H   0  0  0  0  0  0  0  0  0  0  0  0
   -3.2577   -0.8068   -0.0425 H   0  0  0  0  0  0  0  0  0  0  0  0
   -2.0740   -2.8972   -0.4690 H   0  0  0  0  0  0  0  0  0  0  0  0
    0.3767   -2.9633   -0.5619 H   0  0  0  0  0  0  0  0  0  0  0  0
    2.5356   -1.8364   -0.4239 H   0  0  0  0  0  0  0  0  0  0  0  0
    3.8612    0.2068   -0.0886 H   0  0  0  0  0  0  0  0  0  0  0  0
    2.7416    2.3644    0.3484 H   0  0  0  0  0  0  0  0  0  0  0  0
    0.3299    2.5150    0.4556 H   0  0  0  0  0  0  0  0  0  0  0  0
  1  2  2  0
  2  3  1  0
  3  4  2  0
  4  5  1  0
  5  6  2  0
  6  7  1  0
  7  8  2  0
  8  9  1  0
  9 10  2  0
 10 11  1  0
 11 12  2  0
 12  3  1  0
 12  7  1  0
  2 13  1  0
  4 14  1  0
  5 15  1  0
  6 16  1  0
  8 17  1  0
  9 18  1  0
 10 19  1  0
 11 20  1  0
M  END
