
     RDKit          3D

 17 17  0  0  0  0  0  0  0  0999 V2000
   -2.4423    0.3758    0.2282 C   0  0  0  0  0  0  0  0  0  0  0  0
   -1.5967   -0.5948   -0.5889 C   0  0  0  0  0  0  0  0  0  0  0  0
   -0.1382   -0.2650   -0.4620 C   0  0  0  0  0  0  0  0  0  0  0  0
    0.4414    0.5810   -1.3587 N   0  0  0  0  0  0  0  0  0  0  0  0
    1.7518    0.9339   -1.2693 C   0  0  0  0  0  0  0  0  0  0  0  0
    2.5419    0.4333   -0.2321 C   0  0  0  0  0  0  0  0  0  0  0  0
    1.9702   -0.4263    0.7076 C   0  0  0  0  0  0  0  0  0  0  0  0
    0.6229   -0.7774    0.5995 C   0  0  0  0  0  0  0  0  0  0  0  0
   -2.2842    1.4171   -0.1258 H   0  0  0  0  0  0  0  0  0  0  0  0
   -2.1741    0.3095    1.3044 H   0  0  0  0  0  0  0  0  0  0  0  0
   -3.5167    0.1203    0.1135 H   0  0  0  0  0  0  0  0  0  0  0  0
   -1.7859   -1.6338   -0.2413 H   0  0  0  0  0  0  0  0  0  0  0  0
   -1.9009   -0.5354   -1.6564 H   0  0  0  0  0  0  0  0  0  0  0  0
    2.1794    1.6053   -2.0018 H   0  0  0  0  0  0  0  0  0  0  0  0
    3.5849    0.7117   -0.1555 H   0  0  0  0  0  0  0  0  0  0  0  0
    2.5691   -0.8174    1.5198 H   0  0  0  0  0  0  0  0  0  0  0  0
    0.1772   -1.4377    1.3330 H   0  0  0  0  0  0  0  0  0  0  0  0
  1  2  1  0
  2  3  1  0
  3  4  2  0
  4  5  1  0
  5  6  2  0
  6  7  1  0
  7  8  2  0
  8  3  1  0
  1  9  1  0
  1 10  1  0
  1 11  1  0
  2 12  1  0
  2 13  1  0
  5 14  1  0
  6 15  1  0
  7 16  1  0
  8 17  1  0
M  END
