
     RDKit          3D

 21 21  0  0  0  0  0  0  0  0999 V2000
    1.4803    0.7795    1.3758 C   0  0  0  0  0  0  0  0  0  0  0  0
    1.0677    0.0607    0.0873 C   0  0  0  0  0  0  0  0  0  0  0  0
    2.1724    0.1947   -0.9649 C   0  0  0  0  0  0  0  0  0  0  0  0
    0.8703   -1.3091    0.3685 O   0  0  0  0  0  0  0  0  0  0  0  0
   -0.4992   -1.5261    0.2524 C   0  0  0  0  0  0  0  0  0  0  0  0
   -1.0303   -0.3793   -0.5643 C   0  0  0  0  0  0  0  0  0  0  0  0
   -2.4241    0.0672   -0.1073 C   0  0  0  0  0  0  0  0  0  0  0  0
   -2.9136    1.0755   -0.9495 O   0  0  0  0  0  0  0  0  0  0  0  0
   -0.1119    0.6574   -0.4099 O   0  0  0  0  0  0  0  0  0  0  0  0
    2.4100    0.3331    1.7895 H   0  0  0  0  0  0  0  0  0  0  0  0
    1.6537    1.8595    1.1800 H   0  0  0  0  0  0  0  0  0  0  0  0
    0.6752    0.6846    2.1353 H   0  0  0  0  0  0  0  0  0  0  0  0
    1.8709   -0.3287   -1.8973 H   0  0  0  0  0  0  0  0  0  0  0  0
    2.3537    1.2646   -1.2042 H   0  0  0  0  0  0  0  0  0  0  0  0
    3.1177   -0.2585   -0.5963 H   0  0  0  0  0  0  0  0  0  0  0  0
   -0.6875   -2.4955   -0.2565 H   0  0  0  0  0  0  0  0  0  0  0  0
   -0.9443   -1.5559    1.2718 H   0  0  0  0  0  0  0  0  0  0  0  0
   -1.0669   -0.6704   -1.6383 H   0  0  0  0  0  0  0  0  0  0  0  0
   -2.3947    0.4229    0.9488 H   0  0  0  0  0  0  0  0  0  0  0  0
   -3.1195   -0.7978   -0.1571 H   0  0  0  0  0  0  0  0  0  0  0  0
   -2.4800    1.9216   -0.6638 H   0  0  0  0  0  0  0  0  0  0  0  0
  1  2  1  0
  2  3  1  0
  2  4  1  0
  4  5  1  0
  5  6  1  0
  6  7  1  0
  7  8  1  0
  6  9  1  0
  9  2  1  0
  1 10  1  0
  1 11  1  0
  1 12  1  0
  3 13  1  0
  3 14  1  0
  3 15  1  0
  5 16  1  0
  5 17  1  0
  6 18  1  0
  7 19  1  0
  7 20  1  0
  8 21  1  0
M  END
