
     RDKit          3D

 25 24  0  0  0  0  0  0  0  0999 V2000
   -3.5572   -1.1118   -0.6320 O   0  0  0  0  0  0  0  0  0  0  0  0
   -2.4807   -0.2297   -0.7984 C   0  0  0  0  0  0  0  0  0  0  0  0
   -1.2133   -0.8148   -0.1703 C   0  0  0  0  0  0  0  0  0  0  0  0
   -0.0578    0.0743   -0.4292 N   0  0  0  0  0  0  0  0  0  0  0  0
    1.1830   -0.6878   -0.7182 C   0  0  0  0  0  0  0  0  0  0  0  0
    1.7292   -1.4821    0.4834 C   0  0  0  0  0  0  0  0  0  0  0  0
    2.7607   -2.3344    0.0660 O   0  0  0  0  0  0  0  0  0  0  0  0
    0.0913    1.0986    0.6319 C   0  0  0  0  0  0  0  0  0  0  0  0
    1.0290    2.2333    0.2019 C   0  0  0  0  0  0  0  0  0  0  0  0
    0.9511    3.2972    1.1116 O   0  0  0  0  0  0  0  0  0  0  0  0
   -3.8470   -1.0302    0.3142 H   0  0  0  0  0  0  0  0  0  0  0  0
   -2.3120   -0.0803   -1.8860 H   0  0  0  0  0  0  0  0  0  0  0  0
   -2.7252    0.7600   -0.3526 H   0  0  0  0  0  0  0  0  0  0  0  0
   -1.0590   -1.8216   -0.6205 H   0  0  0  0  0  0  0  0  0  0  0  0
   -1.3682   -0.9681    0.9221 H   0  0  0  0  0  0  0  0  0  0  0  0
    0.9895   -1.3892   -1.5598 H   0  0  0  0  0  0  0  0  0  0  0  0
    1.9716   -0.0038   -1.0941 H   0  0  0  0  0  0  0  0  0  0  0  0
    2.1516   -0.7835    1.2343 H   0  0  0  0  0  0  0  0  0  0  0  0
    0.9240   -2.0720    0.9753 H   0  0  0  0  0  0  0  0  0  0  0  0
    2.3269   -3.1146   -0.3687 H   0  0  0  0  0  0  0  0  0  0  0  0
   -0.8991    1.5562    0.8455 H   0  0  0  0  0  0  0  0  0  0  0  0
    0.4421    0.6513    1.5859 H   0  0  0  0  0  0  0  0  0  0  0  0
    0.7677    2.5805   -0.8241 H   0  0  0  0  0  0  0  0  0  0  0  0
    2.0777    1.8718    0.1899 H   0  0  0  0  0  0  0  0  0  0  0  0
    0.1240    3.8007    0.8919 H   0  0  0  0  0  0  0  0  0  0  0  0
  1  2  1  0
  2  3  1  0
  3  4  1  0
  4  5  1  0
  5  6  1  0
  6  7  1  0
  4  8  1  0
  8  9  1  0
  9 10  1  0
  1 11  1  0
  2 12  1  0
  2 13  1  0
  3 14  1  0
  3 15  1  0
  5 16  1  0
  5 17  1  0
  6 18  1  0
  6 19  1  0
  7 20  1  0
  8 21  1  0
  8 22  1  0
  9 23  1  0
  9 24  1  0
 10 25  1  0
M  END
