
     RDKit          3D

 28 28  0  0  0  0  0  0  0  0999 V2000
   -2.8551   -1.1521    0.4451 C   0  0  0  0  0  0  0  0  0  0  0  0
   -2.3280   -0.0720   -0.5232 C   0  0  0  0  0  0  0  0  0  0  0  0
   -2.8366    1.3083   -0.0728 C   0  0  0  0  0  0  0  0  0  0  0  0
   -2.8579   -0.3109   -1.8063 O   0  0  0  0  0  0  0  0  0  0  0  0
   -0.7741   -0.0933   -0.6155 C   0  0  0  0  0  0  0  0  0  0  0  0
   -0.0354    0.2077    0.7013 C   0  0  0  0  0  0  0  0  0  0  0  0
    1.4541    0.1304    0.4945 C   0  0  0  0  0  0  0  0  0  0  0  0
    2.1726    1.2652    0.0814 C   0  0  0  0  0  0  0  0  0  0  0  0
    3.5505    1.1834   -0.1425 C   0  0  0  0  0  0  0  0  0  0  0  0
    4.2181   -0.0317    0.0343 C   0  0  0  0  0  0  0  0  0  0  0  0
    3.5081   -1.1682    0.4312 C   0  0  0  0  0  0  0  0  0  0  0  0
    2.1301   -1.0909    0.6562 C   0  0  0  0  0  0  0  0  0  0  0  0
   -2.4243   -2.1450    0.1942 H   0  0  0  0  0  0  0  0  0  0  0  0
   -3.9613   -1.2245    0.3679 H   0  0  0  0  0  0  0  0  0  0  0  0
   -2.6028   -0.9110    1.4989 H   0  0  0  0  0  0  0  0  0  0  0  0
   -2.5758    1.5136    0.9866 H   0  0  0  0  0  0  0  0  0  0  0  0
   -2.4051    2.1083   -0.7117 H   0  0  0  0  0  0  0  0  0  0  0  0
   -3.9435    1.3541   -0.1629 H   0  0  0  0  0  0  0  0  0  0  0  0
   -2.5669   -1.2152   -2.0973 H   0  0  0  0  0  0  0  0  0  0  0  0
   -0.4536    0.6482   -1.3811 H   0  0  0  0  0  0  0  0  0  0  0  0
   -0.4503   -1.0937   -0.9801 H   0  0  0  0  0  0  0  0  0  0  0  0
   -0.2971    1.2222    1.0686 H   0  0  0  0  0  0  0  0  0  0  0  0
   -0.3314   -0.5195    1.4862 H   0  0  0  0  0  0  0  0  0  0  0  0
    1.6656    2.2104   -0.0685 H   0  0  0  0  0  0  0  0  0  0  0  0
    4.1002    2.0613   -0.4565 H   0  0  0  0  0  0  0  0  0  0  0  0
    5.2844   -0.0936   -0.1407 H   0  0  0  0  0  0  0  0  0  0  0  0
    4.0250   -2.1102    0.5611 H   0  0  0  0  0  0  0  0  0  0  0  0
    1.5900   -1.9812    0.9540 H   0  0  0  0  0  0  0  0  0  0  0  0
  1  2  1  0
  2  3  1  0
  2  4  1  0
  2  5  1  0
  5  6  1  0
  6  7  1  0
  7  8  2  0
  8  9  1  0
  9 10  2  0
 10 11  1  0
 11 12  2  0
 12  7  1  0
  1 13  1  0
  1 14  1  0
  1 15  1  0
  3 16  1  0
  3 17  1  0
  3 18  1  0
  4 19  1  0
  5 20  1  0
  5 21  1  0
  6 22  1  0
  6 23  1  0
  8 24  1  0
  9 25  1  0
 10 26  1  0
 11 27  1  0
 12 28  1  0
M  END
