
     RDKit          3D

 25 25  0  0  0  0  0  0  0  0999 V2000
    4.4007   -0.4889   -2.0209 C   0  0  0  0  0  0  0  0  0  0  0  0
    3.9307   -0.0500   -0.6758 C   0  0  0  0  0  0  0  0  0  0  0  0
    4.7676    0.1293    0.2504 O   0  0  0  0  0  0  0  0  0  0  0  0
    2.5717    0.2020   -0.4693 O   0  0  0  0  0  0  0  0  0  0  0  0
    2.0537    0.6391    0.7830 C   0  0  0  0  0  0  0  0  0  0  0  0
    0.5702    0.8090    0.6824 C   0  0  0  0  0  0  0  0  0  0  0  0
   -0.2294   -0.2419    0.4612 C   0  0  0  0  0  0  0  0  0  0  0  0
   -1.7073   -0.1533    0.3647 C   0  0  0  0  0  0  0  0  0  0  0  0
   -2.3796    1.0533    0.0780 C   0  0  0  0  0  0  0  0  0  0  0  0
   -3.7750    1.0803   -0.0128 C   0  0  0  0  0  0  0  0  0  0  0  0
   -4.5136   -0.0903    0.1720 C   0  0  0  0  0  0  0  0  0  0  0  0
   -3.8581   -1.2931    0.4416 C   0  0  0  0  0  0  0  0  0  0  0  0
   -2.4633   -1.3267    0.5328 C   0  0  0  0  0  0  0  0  0  0  0  0
    4.7596    0.3919   -2.5927 H   0  0  0  0  0  0  0  0  0  0  0  0
    5.2291   -1.2207   -1.9152 H   0  0  0  0  0  0  0  0  0  0  0  0
    3.5673   -0.9687   -2.5757 H   0  0  0  0  0  0  0  0  0  0  0  0
    2.2921   -0.1047    1.5745 H   0  0  0  0  0  0  0  0  0  0  0  0
    2.5156    1.6126    1.0557 H   0  0  0  0  0  0  0  0  0  0  0  0
    0.1660    1.8013    0.8264 H   0  0  0  0  0  0  0  0  0  0  0  0
    0.2227   -1.2250    0.3849 H   0  0  0  0  0  0  0  0  0  0  0  0
   -1.8390    1.9721   -0.1000 H   0  0  0  0  0  0  0  0  0  0  0  0
   -4.2841    2.0096   -0.2338 H   0  0  0  0  0  0  0  0  0  0  0  0
   -5.5933   -0.0663    0.1000 H   0  0  0  0  0  0  0  0  0  0  0  0
   -4.4308   -2.2012    0.5791 H   0  0  0  0  0  0  0  0  0  0  0  0
   -1.9737   -2.2699    0.7429 H   0  0  0  0  0  0  0  0  0  0  0  0
  1  2  1  0
  2  3  2  0
  2  4  1  0
  4  5  1  0
  5  6  1  0
  6  7  2  0
  7  8  1  0
  8  9  2  0
  9 10  1  0
 10 11  2  0
 11 12  1  0
 12 13  2  0
 13  8  1  0
  1 14  1  0
  1 15  1  0
  1 16  1  0
  5 17  1  0
  5 18  1  0
  6 19  1  0
  7 20  1  0
  9 21  1  0
 10 22  1  0
 11 23  1  0
 12 24  1  0
 13 25  1  0
M  END
