
     RDKit          3D

 23 23  0  0  0  0  0  0  0  0999 V2000
   -1.8767    1.2111    0.2173 C   0  0  0  0  0  0  0  0  0  0  0  0
   -1.6087   -0.2024    0.5365 N   0  0  0  0  0  0  0  0  0  0  0  0
   -2.8814   -0.9362    0.6211 C   0  0  0  0  0  0  0  0  0  0  0  0
   -0.7386   -0.8168   -0.4875 C   0  0  0  0  0  0  0  0  0  0  0  0
    0.6845   -0.3495   -0.3245 C   0  0  0  0  0  0  0  0  0  0  0  0
    1.2683    0.5108   -1.2700 C   0  0  0  0  0  0  0  0  0  0  0  0
    2.5843    0.9526   -1.1012 C   0  0  0  0  0  0  0  0  0  0  0  0
    3.3241    0.5422    0.0113 C   0  0  0  0  0  0  0  0  0  0  0  0
    2.7486   -0.3096    0.9582 C   0  0  0  0  0  0  0  0  0  0  0  0
    1.4328   -0.7535    0.7934 C   0  0  0  0  0  0  0  0  0  0  0  0
   -0.9299    1.7912    0.2058 H   0  0  0  0  0  0  0  0  0  0  0  0
   -2.3792    1.3163   -0.7702 H   0  0  0  0  0  0  0  0  0  0  0  0
   -2.5220    1.6651    1.0000 H   0  0  0  0  0  0  0  0  0  0  0  0
   -3.5390   -0.4798    1.3923 H   0  0  0  0  0  0  0  0  0  0  0  0
   -2.6969   -1.9865    0.9336 H   0  0  0  0  0  0  0  0  0  0  0  0
   -3.4134   -0.9358   -0.3568 H   0  0  0  0  0  0  0  0  0  0  0  0
   -0.7348   -1.9247   -0.3771 H   0  0  0  0  0  0  0  0  0  0  0  0
   -1.1169   -0.6026   -1.5136 H   0  0  0  0  0  0  0  0  0  0  0  0
    0.7051    0.8421   -2.1336 H   0  0  0  0  0  0  0  0  0  0  0  0
    3.0301    1.6149   -1.8321 H   0  0  0  0  0  0  0  0  0  0  0  0
    4.3423    0.8857    0.1406 H   0  0  0  0  0  0  0  0  0  0  0  0
    3.3215   -0.6246    1.8207 H   0  0  0  0  0  0  0  0  0  0  0  0
    0.9958   -1.4100    1.5358 H   0  0  0  0  0  0  0  0  0  0  0  0
  1  2  1  0
  2  3  1  0
  2  4  1  0
  4  5  1  0
  5  6  2  0
  6  7  1  0
  7  8  2  0
  8  9  1  0
  9 10  2  0
 10  5  1  0
  1 11  1  0
  1 12  1  0
  1 13  1  0
  3 14  1  0
  3 15  1  0
  3 16  1  0
  4 17  1  0
  4 18  1  0
  6 19  1  0
  7 20  1  0
  8 21  1  0
  9 22  1  0
 10 23  1  0
M  END
