
     RDKit          3D

 16 16  0  0  0  0  0  0  0  0999 V2000
   -2.5344    0.0663   -0.0315 C   0  0  0  0  0  0  0  0  0  0  0  0
   -1.0349    0.0310   -0.0436 C   0  0  0  0  0  0  0  0  0  0  0  0
   -0.3572   -1.1918   -0.1707 C   0  0  0  0  0  0  0  0  0  0  0  0
    1.0407   -1.2291   -0.1448 C   0  0  0  0  0  0  0  0  0  0  0  0
    1.7719   -0.0462    0.0211 C   0  0  0  0  0  0  0  0  0  0  0  0
    1.0996    1.1738    0.1662 C   0  0  0  0  0  0  0  0  0  0  0  0
   -0.2982    1.2118    0.1405 C   0  0  0  0  0  0  0  0  0  0  0  0
    3.2106   -0.0852    0.0490 C   0  0  0  0  0  0  0  0  0  0  0  0
    4.3672   -0.1165    0.0715 N   0  0  0  0  0  0  0  0  0  0  0  0
   -2.9068    1.0336   -0.4311 H   0  0  0  0  0  0  0  0  0  0  0  0
   -2.9505   -0.7483   -0.6618 H   0  0  0  0  0  0  0  0  0  0  0  0
   -2.8981   -0.0596    1.0096 H   0  0  0  0  0  0  0  0  0  0  0  0
   -0.9102   -2.1153   -0.2902 H   0  0  0  0  0  0  0  0  0  0  0  0
    1.5502   -2.1794   -0.2504 H   0  0  0  0  0  0  0  0  0  0  0  0
    1.6551    2.0939    0.3028 H   0  0  0  0  0  0  0  0  0  0  0  0
   -0.8053    2.1609    0.2634 H   0  0  0  0  0  0  0  0  0  0  0  0
  1  2  1  0
  2  3  2  0
  3  4  1  0
  4  5  2  0
  5  6  1  0
  6  7  2  0
  5  8  1  0
  8  9  3  0
  7  2  1  0
  1 10  1  0
  1 11  1  0
  1 12  1  0
  3 13  1  0
  4 14  1  0
  6 15  1  0
  7 16  1  0
M  END
