
     RDKit          3D

 17 17  0  0  0  0  0  0  0  0999 V2000
   -2.7261   -0.1930   -0.0071 C   0  0  0  0  0  0  0  0  0  0  0  0
   -1.2301   -0.0989   -0.0624 C   0  0  0  0  0  0  0  0  0  0  0  0
   -0.6126    1.0484   -0.5822 C   0  0  0  0  0  0  0  0  0  0  0  0
    0.7815    1.1527   -0.6002 C   0  0  0  0  0  0  0  0  0  0  0  0
    1.5775    0.1173   -0.0871 C   0  0  0  0  0  0  0  0  0  0  0  0
    3.0461    0.2454   -0.1144 C   0  0  0  0  0  0  0  0  0  0  0  0
    3.7873   -0.6662    0.3402 O   0  0  0  0  0  0  0  0  0  0  0  0
    0.9574   -1.0240    0.4500 C   0  0  0  0  0  0  0  0  0  0  0  0
   -0.4369   -1.1274    0.4676 C   0  0  0  0  0  0  0  0  0  0  0  0
   -3.0879    0.2389    0.9492 H   0  0  0  0  0  0  0  0  0  0  0  0
   -3.0548   -1.2521   -0.0739 H   0  0  0  0  0  0  0  0  0  0  0  0
   -3.1852    0.3625   -0.8525 H   0  0  0  0  0  0  0  0  0  0  0  0
   -1.2102    1.8623   -0.9743 H   0  0  0  0  0  0  0  0  0  0  0  0
    1.2389    2.0442   -1.0120 H   0  0  0  0  0  0  0  0  0  0  0  0
    3.5042    1.1338   -0.5302 H   0  0  0  0  0  0  0  0  0  0  0  0
    1.5485   -1.8339    0.8591 H   0  0  0  0  0  0  0  0  0  0  0  0
   -0.8976   -2.0100    0.8940 H   0  0  0  0  0  0  0  0  0  0  0  0
  1  2  1  0
  2  3  2  0
  3  4  1  0
  4  5  2  0
  5  6  1  0
  6  7  2  0
  5  8  1  0
  8  9  2  0
  9  2  1  0
  1 10  1  0
  1 11  1  0
  1 12  1  0
  3 13  1  0
  4 14  1  0
  6 15  1  0
  8 16  1  0
  9 17  1  0
M  END
