
     RDKit          3D

 20 20  0  0  0  0  0  0  0  0999 V2000
    2.9516   -0.6520    0.3357 C   0  0  0  0  0  0  0  0  0  0  0  0
    2.2272    0.3646   -0.5403 C   0  0  0  0  0  0  0  0  0  0  0  0
    0.7366    0.2481   -0.3711 C   0  0  0  0  0  0  0  0  0  0  0  0
   -0.0072   -0.6299   -1.1732 C   0  0  0  0  0  0  0  0  0  0  0  0
   -1.3493   -0.7517   -0.9917 N   0  0  0  0  0  0  0  0  0  0  0  0
   -2.0139   -0.0419   -0.0393 C   0  0  0  0  0  0  0  0  0  0  0  0
   -3.4885   -0.2229    0.1316 C   0  0  0  0  0  0  0  0  0  0  0  0
   -1.3059    0.8308    0.7963 C   0  0  0  0  0  0  0  0  0  0  0  0
    0.0728    0.9720    0.6293 C   0  0  0  0  0  0  0  0  0  0  0  0
    4.0483   -0.5490    0.1958 H   0  0  0  0  0  0  0  0  0  0  0  0
    2.7117   -0.4784    1.4066 H   0  0  0  0  0  0  0  0  0  0  0  0
    2.6526   -1.6847    0.0556 H   0  0  0  0  0  0  0  0  0  0  0  0
    2.5634    1.3889   -0.2681 H   0  0  0  0  0  0  0  0  0  0  0  0
    2.5051    0.1965   -1.6037 H   0  0  0  0  0  0  0  0  0  0  0  0
    0.4796   -1.2187   -1.9400 H   0  0  0  0  0  0  0  0  0  0  0  0
   -3.6922   -0.7286    1.0987 H   0  0  0  0  0  0  0  0  0  0  0  0
   -3.9031   -0.8425   -0.6917 H   0  0  0  0  0  0  0  0  0  0  0  0
   -3.9950    0.7653    0.1210 H   0  0  0  0  0  0  0  0  0  0  0  0
   -1.8163    1.3921    1.5692 H   0  0  0  0  0  0  0  0  0  0  0  0
    0.6224    1.6418    1.2791 H   0  0  0  0  0  0  0  0  0  0  0  0
  1  2  1  0
  2  3  1  0
  3  4  2  0
  4  5  1  0
  5  6  2  0
  6  7  1  0
  6  8  1  0
  8  9  2  0
  9  3  1  0
  1 10  1  0
  1 11  1  0
  1 12  1  0
  2 13  1  0
  2 14  1  0
  4 15  1  0
  7 16  1  0
  7 17  1  0
  7 18  1  0
  8 19  1  0
  9 20  1  0
M  END
