
     RDKit          3D

 14 14  0  0  0  0  0  0  0  0999 V2000
    2.6654   -0.8539   -0.2594 O   0  0  0  0  0  0  0  0  0  0  0  0
    1.3482   -0.4197   -0.1295 C   0  0  0  0  0  0  0  0  0  0  0  0
    0.3041   -1.3477   -0.2046 C   0  0  0  0  0  0  0  0  0  0  0  0
   -1.0232   -0.9258   -0.0759 C   0  0  0  0  0  0  0  0  0  0  0  0
   -1.3153    0.4339    0.1298 C   0  0  0  0  0  0  0  0  0  0  0  0
   -0.2672    1.3600    0.2044 C   0  0  0  0  0  0  0  0  0  0  0  0
    1.0594    0.9365    0.0755 C   0  0  0  0  0  0  0  0  0  0  0  0
   -2.6637    0.8939    0.2649 N   0  0  0  0  0  0  0  0  0  0  0  0
   -3.6356    0.1124    0.2066 O   0  0  0  0  0  0  0  0  0  0  0  0
    3.4435   -0.2066   -0.2097 H   0  0  0  0  0  0  0  0  0  0  0  0
    0.5216   -2.3964   -0.3628 H   0  0  0  0  0  0  0  0  0  0  0  0
   -1.8177   -1.6584   -0.1367 H   0  0  0  0  0  0  0  0  0  0  0  0
   -0.4801    2.4099    0.3625 H   0  0  0  0  0  0  0  0  0  0  0  0
    1.8607    1.6620    0.1349 H   0  0  0  0  0  0  0  0  0  0  0  0
  1  2  1  0
  2  3  2  0
  3  4  1  0
  4  5  2  0
  5  6  1  0
  6  7  2  0
  5  8  1  0
  8  9  2  0
  7  2  1  0
  1 10  1  0
  3 11  1  0
  4 12  1  0
  6 13  1  0
  7 14  1  0
M  END
