
     RDKit          3D

 14 13  0  0  0  0  0  0  0  0999 V2000
   -2.0634    0.4724    0.0790 C   0  0  0  0  0  0  0  0  0  0  0  0
   -1.1988   -0.6542   -0.4750 C   0  0  0  0  0  0  0  0  0  0  0  0
    0.1614   -0.2390   -0.5829 O   0  0  0  0  0  0  0  0  0  0  0  0
    1.0198   -0.1202    0.5159 C   0  0  0  0  0  0  0  0  0  0  0  0
    0.6378   -0.4467    1.6728 O   0  0  0  0  0  0  0  0  0  0  0  0
    2.4208    0.3451    0.3039 C   0  0  0  0  0  0  0  0  0  0  0  0
    3.4627   -1.0489   -0.0654 Cl  0  0  0  0  0  0  0  0  0  0  0  0
   -3.1257    0.1503    0.1029 H   0  0  0  0  0  0  0  0  0  0  0  0
   -1.9740    1.3712   -0.5671 H   0  0  0  0  0  0  0  0  0  0  0  0
   -1.7468    0.7324    1.1106 H   0  0  0  0  0  0  0  0  0  0  0  0
   -1.5679   -0.9216   -1.4875 H   0  0  0  0  0  0  0  0  0  0  0  0
   -1.2789   -1.5559    0.1704 H   0  0  0  0  0  0  0  0  0  0  0  0
    2.7985    0.8543    1.2158 H   0  0  0  0  0  0  0  0  0  0  0  0
    2.4546    1.0607   -0.5441 H   0  0  0  0  0  0  0  0  0  0  0  0
  1  2  1  0
  2  3  1  0
  3  4  1  0
  4  5  2  0
  4  6  1  0
  6  7  1  0
  1  8  1  0
  1  9  1  0
  1 10  1  0
  2 11  1  0
  2 12  1  0
  6 13  1  0
  6 14  1  0
M  END
