
     RDKit          3D

 19 19  0  0  0  0  0  0  0  0999 V2000
   -2.7358   -0.5598   -0.6153 C   0  0  0  0  0  0  0  0  0  0  0  0
   -1.3769   -0.0715   -0.2085 C   0  0  0  0  0  0  0  0  0  0  0  0
   -0.2633   -0.9198   -0.3056 C   0  0  0  0  0  0  0  0  0  0  0  0
    1.0178   -0.4588    0.0424 C   0  0  0  0  0  0  0  0  0  0  0  0
    1.1838    0.8728    0.4653 C   0  0  0  0  0  0  0  0  0  0  0  0
    2.4518    1.3472    0.8013 O   0  0  0  0  0  0  0  0  0  0  0  0
    0.0726    1.7232    0.5447 C   0  0  0  0  0  0  0  0  0  0  0  0
   -1.1990    1.2563    0.2048 C   0  0  0  0  0  0  0  0  0  0  0  0
    2.2062   -1.3716   -0.0681 C   0  0  0  0  0  0  0  0  0  0  0  0
   -3.5302   -0.0240   -0.0532 H   0  0  0  0  0  0  0  0  0  0  0  0
   -2.8807   -0.3852   -1.7019 H   0  0  0  0  0  0  0  0  0  0  0  0
   -2.8406   -1.6456   -0.4054 H   0  0  0  0  0  0  0  0  0  0  0  0
   -0.3958   -1.9384   -0.6511 H   0  0  0  0  0  0  0  0  0  0  0  0
    2.5974    2.3021    1.1075 H   0  0  0  0  0  0  0  0  0  0  0  0
    0.1948    2.7500    0.8654 H   0  0  0  0  0  0  0  0  0  0  0  0
   -2.0444    1.9308    0.2626 H   0  0  0  0  0  0  0  0  0  0  0  0
    2.8746   -1.0144   -0.8794 H   0  0  0  0  0  0  0  0  0  0  0  0
    1.9001   -2.4150   -0.2954 H   0  0  0  0  0  0  0  0  0  0  0  0
    2.7676   -1.3781    0.8900 H   0  0  0  0  0  0  0  0  0  0  0  0
  1  2  1  0
  2  3  2  0
  3  4  1  0
  4  5  2  0
  5  6  1  0
  5  7  1  0
  7  8  2  0
  4  9  1  0
  8  2  1  0
  1 10  1  0
  1 11  1  0
  1 12  1  0
  3 13  1  0
  6 14  1  0
  7 15  1  0
  8 16  1  0
  9 17  1  0
  9 18  1  0
  9 19  1  0
M  END
