
     RDKit          3D

 36 35  0  0  0  0  0  0  0  0999 V2000
   -6.9701    0.5398    1.1954 C   0  0  0  0  0  0  0  0  0  0  0  0
   -6.1927   -0.1173    0.0586 C   0  0  0  0  0  0  0  0  0  0  0  0
   -4.6899    0.1556    0.1856 C   0  0  0  0  0  0  0  0  0  0  0  0
   -3.9120   -0.5052   -0.9558 C   0  0  0  0  0  0  0  0  0  0  0  0
   -2.5218   -0.2036   -0.8533 O   0  0  0  0  0  0  0  0  0  0  0  0
   -1.6652   -0.8138    0.0723 C   0  0  0  0  0  0  0  0  0  0  0  0
   -2.0918   -1.7203    0.8378 O   0  0  0  0  0  0  0  0  0  0  0  0
   -0.2534   -0.4111    0.1586 C   0  0  0  0  0  0  0  0  0  0  0  0
    0.2595    0.5450   -0.6228 C   0  0  0  0  0  0  0  0  0  0  0  0
    1.6713    0.9478   -0.5364 C   0  0  0  0  0  0  0  0  0  0  0  0
    2.0979    1.8543   -1.3019 O   0  0  0  0  0  0  0  0  0  0  0  0
    2.5279    0.3373    0.3891 O   0  0  0  0  0  0  0  0  0  0  0  0
    3.9180    0.6396    0.4930 C   0  0  0  0  0  0  0  0  0  0  0  0
    4.6992   -0.0372   -0.6404 C   0  0  0  0  0  0  0  0  0  0  0  0
    6.1893    0.3361   -0.6361 C   0  0  0  0  0  0  0  0  0  0  0  0
    6.9514   -0.2859    0.5337 C   0  0  0  0  0  0  0  0  0  0  0  0
   -6.6338    0.1387    2.1752 H   0  0  0  0  0  0  0  0  0  0  0  0
   -8.0533    0.3260    1.0772 H   0  0  0  0  0  0  0  0  0  0  0  0
   -6.8214    1.6406    1.1787 H   0  0  0  0  0  0  0  0  0  0  0  0
   -6.5662    0.2816   -0.9097 H   0  0  0  0  0  0  0  0  0  0  0  0
   -6.3777   -1.2135    0.0830 H   0  0  0  0  0  0  0  0  0  0  0  0
   -4.5071    1.2523    0.1598 H   0  0  0  0  0  0  0  0  0  0  0  0
   -4.3251   -0.2382    1.1587 H   0  0  0  0  0  0  0  0  0  0  0  0
   -4.2821   -0.1105   -1.9260 H   0  0  0  0  0  0  0  0  0  0  0  0
   -4.0658   -1.6068   -0.9509 H   0  0  0  0  0  0  0  0  0  0  0  0
    0.3745   -0.9148    0.8841 H   0  0  0  0  0  0  0  0  0  0  0  0
   -0.3684    1.0488   -1.3482 H   0  0  0  0  0  0  0  0  0  0  0  0
    4.2775    0.2568    1.4702 H   0  0  0  0  0  0  0  0  0  0  0  0
    4.0710    1.7410    0.4760 H   0  0  0  0  0  0  0  0  0  0  0  0
    4.2688    0.2796   -1.6144 H   0  0  0  0  0  0  0  0  0  0  0  0
    4.5829   -1.1405   -0.5670 H   0  0  0  0  0  0  0  0  0  0  0  0
    6.3068    1.4414   -0.6122 H   0  0  0  0  0  0  0  0  0  0  0  0
    6.6452   -0.0295   -1.5817 H   0  0  0  0  0  0  0  0  0  0  0  0
    6.8025   -1.3865    0.5538 H   0  0  0  0  0  0  0  0  0  0  0  0
    6.6176    0.1509    1.4975 H   0  0  0  0  0  0  0  0  0  0  0  0
    8.0362   -0.0788    0.4185 H   0  0  0  0  0  0  0  0  0  0  0  0
  1  2  1  0
  2  3  1  0
  3  4  1  0
  4  5  1  0
  5  6  1  0
  6  7  2  0
  6  8  1  0
  8  9  2  0
  9 10  1  0
 10 11  2  0
 10 12  1  0
 12 13  1  0
 13 14  1  0
 14 15  1  0
 15 16  1  0
  1 17  1  0
  1 18  1  0
  1 19  1  0
  2 20  1  0
  2 21  1  0
  3 22  1  0
  3 23  1  0
  4 24  1  0
  4 25  1  0
  8 26  1  0
  9 27  1  0
 13 28  1  0
 13 29  1  0
 14 30  1  0
 14 31  1  0
 15 32  1  0
 15 33  1  0
 16 34  1  0
 16 35  1  0
 16 36  1  0
M  END
