
     RDKit          3D

 44 43  0  0  0  0  0  0  0  0999 V2000
   -6.3650   -2.2697   -0.0724 C   0  0  0  0  0  0  0  0  0  0  0  0
   -6.0868   -0.9827    0.7032 C   0  0  0  0  0  0  0  0  0  0  0  0
   -6.2534    0.2799   -0.1585 C   0  0  0  0  0  0  0  0  0  0  0  0
   -5.1983    0.4082   -1.2669 C   0  0  0  0  0  0  0  0  0  0  0  0
   -3.8749    0.3448   -0.7371 O   0  0  0  0  0  0  0  0  0  0  0  0
   -3.2803    1.3896   -0.0212 C   0  0  0  0  0  0  0  0  0  0  0  0
   -3.8726    2.4940    0.1221 O   0  0  0  0  0  0  0  0  0  0  0  0
   -1.9032    1.2083    0.5325 C   0  0  0  0  0  0  0  0  0  0  0  0
   -0.8518    1.5531   -0.5258 C   0  0  0  0  0  0  0  0  0  0  0  0
    0.5661    1.3638    0.0256 C   0  0  0  0  0  0  0  0  0  0  0  0
    1.6178    1.7072   -1.0330 C   0  0  0  0  0  0  0  0  0  0  0  0
    2.9946    1.5101   -0.4835 C   0  0  0  0  0  0  0  0  0  0  0  0
    3.6015    2.4786    0.0505 O   0  0  0  0  0  0  0  0  0  0  0  0
    3.5763    0.2400   -0.5274 O   0  0  0  0  0  0  0  0  0  0  0  0
    4.8701   -0.0306    0.0017 C   0  0  0  0  0  0  0  0  0  0  0  0
    5.2013   -1.5101   -0.2024 C   0  0  0  0  0  0  0  0  0  0  0  0
    6.5234   -1.9193    0.4644 C   0  0  0  0  0  0  0  0  0  0  0  0
    7.7464   -1.3351   -0.2419 C   0  0  0  0  0  0  0  0  0  0  0  0
   -7.3620   -2.2227   -0.5597 H   0  0  0  0  0  0  0  0  0  0  0  0
   -5.5836   -2.4407   -0.8416 H   0  0  0  0  0  0  0  0  0  0  0  0
   -6.3542   -3.1316    0.6276 H   0  0  0  0  0  0  0  0  0  0  0  0
   -5.0645   -1.0228    1.1371 H   0  0  0  0  0  0  0  0  0  0  0  0
   -6.8049   -0.9243    1.5496 H   0  0  0  0  0  0  0  0  0  0  0  0
   -6.1891    1.1693    0.5042 H   0  0  0  0  0  0  0  0  0  0  0  0
   -7.2659    0.2876   -0.6174 H   0  0  0  0  0  0  0  0  0  0  0  0
   -5.3425    1.3655   -1.8136 H   0  0  0  0  0  0  0  0  0  0  0  0
   -5.3283   -0.4101   -2.0048 H   0  0  0  0  0  0  0  0  0  0  0  0
   -1.7728    1.8611    1.4234 H   0  0  0  0  0  0  0  0  0  0  0  0
   -1.7813    0.1517    0.8556 H   0  0  0  0  0  0  0  0  0  0  0  0
   -0.9847    2.6107   -0.8452 H   0  0  0  0  0  0  0  0  0  0  0  0
   -0.9928    0.8955   -1.4124 H   0  0  0  0  0  0  0  0  0  0  0  0
    0.6983    0.3063    0.3460 H   0  0  0  0  0  0  0  0  0  0  0  0
    0.7078    2.0220    0.9116 H   0  0  0  0  0  0  0  0  0  0  0  0
    1.4962    2.7634   -1.3595 H   0  0  0  0  0  0  0  0  0  0  0  0
    1.4869    1.0519   -1.9213 H   0  0  0  0  0  0  0  0  0  0  0  0
    4.8817    0.2110    1.0872 H   0  0  0  0  0  0  0  0  0  0  0  0
    5.6170    0.6026   -0.5229 H   0  0  0  0  0  0  0  0  0  0  0  0
    4.3840   -2.1181    0.2433 H   0  0  0  0  0  0  0  0  0  0  0  0
    5.2363   -1.7393   -1.2899 H   0  0  0  0  0  0  0  0  0  0  0  0
    6.6018   -3.0277    0.4365 H   0  0  0  0  0  0  0  0  0  0  0  0
    6.5259   -1.6092    1.5320 H   0  0  0  0  0  0  0  0  0  0  0  0
    8.6692   -1.7547    0.2114 H   0  0  0  0  0  0  0  0  0  0  0  0
    7.7335   -1.5958   -1.3215 H   0  0  0  0  0  0  0  0  0  0  0  0
    7.7768   -0.2318   -0.1275 H   0  0  0  0  0  0  0  0  0  0  0  0
  1  2  1  0
  2  3  1  0
  3  4  1  0
  4  5  1  0
  5  6  1  0
  6  7  2  0
  6  8  1  0
  8  9  1  0
  9 10  1  0
 10 11  1  0
 11 12  1  0
 12 13  2  0
 12 14  1  0
 14 15  1  0
 15 16  1  0
 16 17  1  0
 17 18  1  0
  1 19  1  0
  1 20  1  0
  1 21  1  0
  2 22  1  0
  2 23  1  0
  3 24  1  0
  3 25  1  0
  4 26  1  0
  4 27  1  0
  8 28  1  0
  8 29  1  0
  9 30  1  0
  9 31  1  0
 10 32  1  0
 10 33  1  0
 11 34  1  0
 11 35  1  0
 15 36  1  0
 15 37  1  0
 16 38  1  0
 16 39  1  0
 17 40  1  0
 17 41  1  0
 18 42  1  0
 18 43  1  0
 18 44  1  0
M  END
