
     RDKit          3D

 15 15  0  0  0  0  0  0  0  0999 V2000
   -2.2600    0.0775    0.2594 C   0  0  0  0  0  0  0  0  0  0  0  0
   -0.7679    0.0196    0.1180 C   0  0  0  0  0  0  0  0  0  0  0  0
   -0.1380   -1.1803   -0.2496 C   0  0  0  0  0  0  0  0  0  0  0  0
    1.2497   -1.2244   -0.4175 C   0  0  0  0  0  0  0  0  0  0  0  0
    2.0158   -0.0689   -0.2322 C   0  0  0  0  0  0  0  0  0  0  0  0
    3.9105   -0.1306   -0.4640 Br  0  0  0  0  0  0  0  0  0  0  0  0
    1.3918    1.1334    0.1165 C   0  0  0  0  0  0  0  0  0  0  0  0
    0.0043    1.1804    0.2851 C   0  0  0  0  0  0  0  0  0  0  0  0
   -2.5534    0.8500    1.0018 H   0  0  0  0  0  0  0  0  0  0  0  0
   -2.7143    0.3271   -0.7220 H   0  0  0  0  0  0  0  0  0  0  0  0
   -2.6589   -0.8999    0.6055 H   0  0  0  0  0  0  0  0  0  0  0  0
   -0.7202   -2.0802   -0.4053 H   0  0  0  0  0  0  0  0  0  0  0  0
    1.7277   -2.1551   -0.6949 H   0  0  0  0  0  0  0  0  0  0  0  0
    1.9800    2.0317    0.2533 H   0  0  0  0  0  0  0  0  0  0  0  0
   -0.4671    2.1200    0.5459 H   0  0  0  0  0  0  0  0  0  0  0  0
  1  2  1  0
  2  3  2  0
  3  4  1  0
  4  5  2  0
  5  6  1  0
  5  7  1  0
  7  8  2  0
  8  2  1  0
  1  9  1  0
  1 10  1  0
  1 11  1  0
  3 12  1  0
  4 13  1  0
  7 14  1  0
  8 15  1  0
M  END
