
     RDKit          3D

  8  7  0  0  0  0  0  0  0  0999 V2000
   -1.4551    0.4104   -0.6971 O   0  0  0  0  0  0  0  0  0  0  0  0
   -0.7264   -0.2664    0.2892 C   0  0  0  0  0  0  0  0  0  0  0  0
    0.7087   -0.1829   -0.0008 C   0  0  0  0  0  0  0  0  0  0  0  0
    1.8885   -0.1143   -0.2387 C   0  0  0  0  0  0  0  0  0  0  0  0
   -1.3787    1.3797   -0.4938 H   0  0  0  0  0  0  0  0  0  0  0  0
   -1.0295   -1.3337    0.2930 H   0  0  0  0  0  0  0  0  0  0  0  0
   -0.9316    0.1612    1.2959 H   0  0  0  0  0  0  0  0  0  0  0  0
    2.9242   -0.0539   -0.4477 H   0  0  0  0  0  0  0  0  0  0  0  0
  1  2  1  0
  2  3  1  0
  3  4  3  0
  1  5  1  0
  2  6  1  0
  2  7  1  0
  4  8  1  0
M  END
