
     RDKit          3D

 13 13  0  0  0  0  0  0  0  0999 V2000
    2.5157   -0.3769    0.0459 O   0  0  0  0  0  0  0  0  0  0  0  0
    1.1470   -0.1223   -0.0011 C   0  0  0  0  0  0  0  0  0  0  0  0
    0.2262   -1.0724    0.4655 C   0  0  0  0  0  0  0  0  0  0  0  0
   -1.1468   -0.8039    0.4125 C   0  0  0  0  0  0  0  0  0  0  0  0
   -1.6009    0.4140   -0.1066 C   0  0  0  0  0  0  0  0  0  0  0  0
   -0.6840    1.3617   -0.5719 C   0  0  0  0  0  0  0  0  0  0  0  0
    0.6877    1.0941   -0.5193 C   0  0  0  0  0  0  0  0  0  0  0  0
   -2.2971   -1.9926    0.9962 Cl  0  0  0  0  0  0  0  0  0  0  0  0
    2.8799   -1.2476    0.4151 H   0  0  0  0  0  0  0  0  0  0  0  0
    0.5764   -2.0149    0.8672 H   0  0  0  0  0  0  0  0  0  0  0  0
   -2.6615    0.6265   -0.1498 H   0  0  0  0  0  0  0  0  0  0  0  0
   -1.0362    2.3032   -0.9731 H   0  0  0  0  0  0  0  0  0  0  0  0
    1.3935    1.8311   -0.8808 H   0  0  0  0  0  0  0  0  0  0  0  0
  1  2  1  0
  2  3  2  0
  3  4  1  0
  4  5  2  0
  5  6  1  0
  6  7  2  0
  4  8  1  0
  7  2  1  0
  1  9  1  0
  3 10  1  0
  5 11  1  0
  6 12  1  0
  7 13  1  0
M  END
