
     RDKit          3D

 14 14  0  0  0  0  0  0  0  0999 V2000
    2.1190   -1.1932    0.9770 O   0  0  0  0  0  0  0  0  0  0  0  0
    1.0595   -0.4820    0.4181 C   0  0  0  0  0  0  0  0  0  0  0  0
   -0.2476   -0.9620    0.5621 C   0  0  0  0  0  0  0  0  0  0  0  0
   -1.3239   -0.2560    0.0044 C   0  0  0  0  0  0  0  0  0  0  0  0
   -1.0869    0.9315   -0.6973 C   0  0  0  0  0  0  0  0  0  0  0  0
    0.2179    1.4128   -0.8422 C   0  0  0  0  0  0  0  0  0  0  0  0
    1.2903    0.7086   -0.2861 C   0  0  0  0  0  0  0  0  0  0  0  0
   -2.6284   -0.7249    0.1418 O   0  0  0  0  0  0  0  0  0  0  0  0
    3.0762   -0.8721    0.8903 H   0  0  0  0  0  0  0  0  0  0  0  0
   -0.4252   -1.8813    1.1060 H   0  0  0  0  0  0  0  0  0  0  0  0
   -1.9136    1.4806   -1.1298 H   0  0  0  0  0  0  0  0  0  0  0  0
    0.3980    2.3314   -1.3855 H   0  0  0  0  0  0  0  0  0  0  0  0
    2.2977    1.0876   -0.4026 H   0  0  0  0  0  0  0  0  0  0  0  0
   -2.8331   -1.5810    0.6438 H   0  0  0  0  0  0  0  0  0  0  0  0
  1  2  1  0
  2  3  2  0
  3  4  1  0
  4  5  2  0
  5  6  1  0
  6  7  2  0
  4  8  1  0
  7  2  1  0
  1  9  1  0
  3 10  1  0
  5 11  1  0
  6 12  1  0
  7 13  1  0
  8 14  1  0
M  END
