
     RDKit          3D

 15 15  0  0  0  0  0  0  0  0999 V2000
   -2.2213   -0.0276    0.0190 C   0  0  0  0  0  0  0  0  0  0  0  0
   -0.7216   -0.0090    0.0363 C   0  0  0  0  0  0  0  0  0  0  0  0
   -0.0286    1.2123    0.0140 C   0  0  0  0  0  0  0  0  0  0  0  0
    1.3698    1.2276   -0.0074 C   0  0  0  0  0  0  0  0  0  0  0  0
    2.0835    0.0259   -0.0195 C   0  0  0  0  0  0  0  0  0  0  0  0
    1.3998   -1.1932   -0.0153 C   0  0  0  0  0  0  0  0  0  0  0  0
    0.0015   -1.2127    0.0060 C   0  0  0  0  0  0  0  0  0  0  0  0
   -2.5782   -0.0285   -1.0320 H   0  0  0  0  0  0  0  0  0  0  0  0
   -2.6300    0.8644    0.5399 H   0  0  0  0  0  0  0  0  0  0  0  0
   -2.6078   -0.9328    0.5340 H   0  0  0  0  0  0  0  0  0  0  0  0
   -0.5697    2.1505    0.0136 H   0  0  0  0  0  0  0  0  0  0  0  0
    1.9001    2.1711   -0.0184 H   0  0  0  0  0  0  0  0  0  0  0  0
    3.1656    0.0393   -0.0374 H   0  0  0  0  0  0  0  0  0  0  0  0
    1.9533   -2.1232   -0.0325 H   0  0  0  0  0  0  0  0  0  0  0  0
   -0.5163   -2.1640   -0.0005 H   0  0  0  0  0  0  0  0  0  0  0  0
  1  2  1  0
  2  3  2  0
  3  4  1  0
  4  5  2  0
  5  6  1  0
  6  7  2  0
  7  2  1  0
  1  8  1  0
  1  9  1  0
  1 10  1  0
  3 11  1  0
  4 12  1  0
  5 13  1  0
  6 14  1  0
  7 15  1  0
M  END
