
     RDKit          3D

 19 19  0  0  0  0  0  0  0  0999 V2000
    2.1995   -0.1887   -0.4219 C   0  0  0  0  0  0  0  0  0  0  0  0
    0.7330   -0.1928   -0.5310 N   0  0  0  0  0  0  0  0  0  0  0  0
    0.1550   -1.1270    0.4523 C   0  0  0  0  0  0  0  0  0  0  0  0
   -1.3747   -1.1332    0.3338 C   0  0  0  0  0  0  0  0  0  0  0  0
   -1.9250    0.2158    0.5214 N   0  0  0  0  0  0  0  0  0  0  0  0
   -1.3244    1.1606   -0.4296 C   0  0  0  0  0  0  0  0  0  0  0  0
    0.2054    1.1662   -0.3108 C   0  0  0  0  0  0  0  0  0  0  0  0
    2.5996   -1.2064   -0.6198 H   0  0  0  0  0  0  0  0  0  0  0  0
    2.6369    0.4909   -1.1847 H   0  0  0  0  0  0  0  0  0  0  0  0
    2.5301    0.1404    0.5887 H   0  0  0  0  0  0  0  0  0  0  0  0
    0.5239   -2.1577    0.2555 H   0  0  0  0  0  0  0  0  0  0  0  0
    0.4459   -0.8444    1.4904 H   0  0  0  0  0  0  0  0  0  0  0  0
   -1.6737   -1.5250   -0.6635 H   0  0  0  0  0  0  0  0  0  0  0  0
   -1.7998   -1.8129    1.1036 H   0  0  0  0  0  0  0  0  0  0  0  0
   -1.7096    0.5353    1.4956 H   0  0  0  0  0  0  0  0  0  0  0  0
   -1.6207    0.8885   -1.4667 H   0  0  0  0  0  0  0  0  0  0  0  0
   -1.7121    2.1821   -0.2259 H   0  0  0  0  0  0  0  0  0  0  0  0
    0.4985    1.5504    0.6934 H   0  0  0  0  0  0  0  0  0  0  0  0
    0.6121    1.8581   -1.0809 H   0  0  0  0  0  0  0  0  0  0  0  0
  1  2  1  0
  2  3  1  0
  3  4  1  0
  4  5  1  0
  5  6  1  0
  6  7  1  0
  7  2  1  0
  1  8  1  0
  1  9  1  0
  1 10  1  0
  3 11  1  0
  3 12  1  0
  4 13  1  0
  4 14  1  0
  5 15  1  0
  6 16  1  0
  6 17  1  0
  7 18  1  0
  7 19  1  0
M  END
