
     RDKit          3D

 13 13  0  0  0  0  0  0  0  0999 V2000
   -2.0736   -0.2196   -0.1554 C   0  0  0  0  0  0  0  0  0  0  0  0
   -0.5908   -0.0628   -0.0446 C   0  0  0  0  0  0  0  0  0  0  0  0
   -0.0345    0.8550    0.8557 C   0  0  0  0  0  0  0  0  0  0  0  0
    1.3168    0.9773    0.9362 N   0  0  0  0  0  0  0  0  0  0  0  0
    2.1393    0.2251    0.1588 C   0  0  0  0  0  0  0  0  0  0  0  0
    1.5873   -0.6904   -0.7393 C   0  0  0  0  0  0  0  0  0  0  0  0
    0.2364   -0.8142   -0.8212 N   0  0  0  0  0  0  0  0  0  0  0  0
   -2.5314    0.7462   -0.4560 H   0  0  0  0  0  0  0  0  0  0  0  0
   -2.3290   -0.9879   -0.9158 H   0  0  0  0  0  0  0  0  0  0  0  0
   -2.4916   -0.5341    0.8240 H   0  0  0  0  0  0  0  0  0  0  0  0
   -0.6678    1.4660    1.4861 H   0  0  0  0  0  0  0  0  0  0  0  0
    3.2124    0.3371    0.2375 H   0  0  0  0  0  0  0  0  0  0  0  0
    2.2265   -1.2976   -1.3661 H   0  0  0  0  0  0  0  0  0  0  0  0
  1  2  1  0
  2  3  2  0
  3  4  1  0
  4  5  2  0
  5  6  1  0
  6  7  2  0
  7  2  1  0
  1  8  1  0
  1  9  1  0
  1 10  1  0
  3 11  1  0
  5 12  1  0
  6 13  1  0
M  END
