
     RDKit          3D

 17 16  0  0  0  0  0  0  0  0999 V2000
    2.8051    0.6012   -0.4798 C   0  0  0  0  0  0  0  0  0  0  0  0
    2.1567   -0.5199    0.3226 C   0  0  0  0  0  0  0  0  0  0  0  0
    0.6968   -0.4649    0.1949 C   0  0  0  0  0  0  0  0  0  0  0  0
   -0.5034   -0.4184    0.0888 C   0  0  0  0  0  0  0  0  0  0  0  0
   -1.9665   -0.3601   -0.0414 C   0  0  0  0  0  0  0  0  0  0  0  0
   -2.3706    0.8888   -0.8183 C   0  0  0  0  0  0  0  0  0  0  0  0
   -2.4263   -1.4981   -0.7199 O   0  0  0  0  0  0  0  0  0  0  0  0
    3.9088    0.5442   -0.3716 H   0  0  0  0  0  0  0  0  0  0  0  0
    2.4627    1.5910   -0.1080 H   0  0  0  0  0  0  0  0  0  0  0  0
    2.5485    0.5045   -1.5567 H   0  0  0  0  0  0  0  0  0  0  0  0
    2.5172   -1.5018   -0.0500 H   0  0  0  0  0  0  0  0  0  0  0  0
    2.4317   -0.4192    1.3937 H   0  0  0  0  0  0  0  0  0  0  0  0
   -2.4186   -0.3074    0.9753 H   0  0  0  0  0  0  0  0  0  0  0  0
   -3.4770    0.9338   -0.9059 H   0  0  0  0  0  0  0  0  0  0  0  0
   -1.9329    0.8719   -1.8400 H   0  0  0  0  0  0  0  0  0  0  0  0
   -2.0230    1.8021   -0.2887 H   0  0  0  0  0  0  0  0  0  0  0  0
   -2.4092   -2.2476   -0.0682 H   0  0  0  0  0  0  0  0  0  0  0  0
  1  2  1  0
  2  3  1  0
  3  4  3  0
  4  5  1  0
  5  6  1  0
  5  7  1  0
  1  8  1  0
  1  9  1  0
  1 10  1  0
  2 11  1  0
  2 12  1  0
  5 13  1  0
  6 14  1  0
  6 15  1  0
  6 16  1  0
  7 17  1  0
M  END
