
     RDKit          3D

 17 16  0  0  0  0  0  0  0  0999 V2000
   -1.1576    1.4126   -0.0882 C   0  0  0  0  0  0  0  0  0  0  0  0
   -1.2051    0.1494   -0.9465 C   0  0  0  0  0  0  0  0  0  0  0  0
   -0.5960   -1.0805   -0.2495 C   0  0  0  0  0  0  0  0  0  0  0  0
    0.9422   -1.1060   -0.2635 C   0  0  0  0  0  0  0  0  0  0  0  0
    1.5440   -0.2118    0.7816 C   0  0  0  0  0  0  0  0  0  0  0  0
    2.3538    0.8616    0.4203 O   0  0  0  0  0  0  0  0  0  0  0  0
    1.3306   -0.4401    2.0016 O   0  0  0  0  0  0  0  0  0  0  0  0
   -1.5719    1.2153    0.9233 H   0  0  0  0  0  0  0  0  0  0  0  0
   -1.7667    2.2069   -0.5689 H   0  0  0  0  0  0  0  0  0  0  0  0
   -0.1196    1.7892    0.0011 H   0  0  0  0  0  0  0  0  0  0  0  0
   -2.2722   -0.0716   -1.1671 H   0  0  0  0  0  0  0  0  0  0  0  0
   -0.6985    0.3369   -1.9180 H   0  0  0  0  0  0  0  0  0  0  0  0
   -0.9467   -1.9805   -0.8005 H   0  0  0  0  0  0  0  0  0  0  0  0
   -0.9838   -1.1751    0.7886 H   0  0  0  0  0  0  0  0  0  0  0  0
    1.3209   -0.8360   -1.2726 H   0  0  0  0  0  0  0  0  0  0  0  0
    1.2813   -2.1442   -0.0574 H   0  0  0  0  0  0  0  0  0  0  0  0
    2.5454    1.0740   -0.5514 H   0  0  0  0  0  0  0  0  0  0  0  0
  1  2  1  0
  2  3  1  0
  3  4  1  0
  4  5  1  0
  5  6  1  0
  5  7  2  0
  1  8  1  0
  1  9  1  0
  1 10  1  0
  2 11  1  0
  2 12  1  0
  3 13  1  0
  3 14  1  0
  4 15  1  0
  4 16  1  0
  6 17  1  0
M  END
