
     RDKit          3D

 17 16  0  0  0  0  0  0  0  0999 V2000
   -2.9358    0.2892   -0.1761 C   0  0  0  0  0  0  0  0  0  0  0  0
   -1.5559    0.5710    0.4109 C   0  0  0  0  0  0  0  0  0  0  0  0
   -0.4699   -0.2098   -0.3258 C   0  0  0  0  0  0  0  0  0  0  0  0
    0.7981    0.0819    0.2527 O   0  0  0  0  0  0  0  0  0  0  0  0
    1.9874   -0.4849   -0.2139 C   0  0  0  0  0  0  0  0  0  0  0  0
    3.2754   -0.1467    0.4564 C   0  0  0  0  0  0  0  0  0  0  0  0
    1.9775   -1.3099   -1.1677 O   0  0  0  0  0  0  0  0  0  0  0  0
   -3.1784   -0.7916   -0.0903 H   0  0  0  0  0  0  0  0  0  0  0  0
   -2.9691    0.5892   -1.2452 H   0  0  0  0  0  0  0  0  0  0  0  0
   -3.7016    0.8701    0.3798 H   0  0  0  0  0  0  0  0  0  0  0  0
   -1.5517    0.2853    1.4852 H   0  0  0  0  0  0  0  0  0  0  0  0
   -1.3434    1.6595    0.3358 H   0  0  0  0  0  0  0  0  0  0  0  0
   -0.6717   -1.3005   -0.2439 H   0  0  0  0  0  0  0  0  0  0  0  0
   -0.4623    0.0809   -1.3994 H   0  0  0  0  0  0  0  0  0  0  0  0
    3.5197   -0.9294    1.2042 H   0  0  0  0  0  0  0  0  0  0  0  0
    4.0919   -0.0882   -0.2941 H   0  0  0  0  0  0  0  0  0  0  0  0
    3.1898    0.8338    0.9699 H   0  0  0  0  0  0  0  0  0  0  0  0
  1  2  1  0
  2  3  1  0
  3  4  1  0
  4  5  1  0
  5  6  1  0
  5  7  2  0
  1  8  1  0
  1  9  1  0
  1 10  1  0
  2 11  1  0
  2 12  1  0
  3 13  1  0
  3 14  1  0
  6 15  1  0
  6 16  1  0
  6 17  1  0
M  END
