
     RDKit          3D

 14 13  0  0  0  0  0  0  0  0999 V2000
   -1.6286    0.4089    0.1159 C   0  0  0  0  0  0  0  0  0  0  0  0
   -0.6519   -0.6246   -0.4446 C   0  0  0  0  0  0  0  0  0  0  0  0
    0.6796   -0.6669    0.3250 C   0  0  0  0  0  0  0  0  0  0  0  0
    1.5521    0.5775    0.1224 C   0  0  0  0  0  0  0  0  0  0  0  0
    2.1164    0.7152   -1.5649 Cl  0  0  0  0  0  0  0  0  0  0  0  0
   -1.7747    0.2559    1.2063 H   0  0  0  0  0  0  0  0  0  0  0  0
   -1.2607    1.4391   -0.0682 H   0  0  0  0  0  0  0  0  0  0  0  0
   -2.6110    0.2994   -0.3900 H   0  0  0  0  0  0  0  0  0  0  0  0
   -1.1280   -1.6263   -0.3695 H   0  0  0  0  0  0  0  0  0  0  0  0
   -0.4749   -0.4231   -1.5225 H   0  0  0  0  0  0  0  0  0  0  0  0
    0.4746   -0.7932    1.4104 H   0  0  0  0  0  0  0  0  0  0  0  0
    1.2540   -1.5597   -0.0051 H   0  0  0  0  0  0  0  0  0  0  0  0
    2.4466    0.4986    0.7756 H   0  0  0  0  0  0  0  0  0  0  0  0
    1.0066    1.4994    0.4091 H   0  0  0  0  0  0  0  0  0  0  0  0
  1  2  1  0
  2  3  1  0
  3  4  1  0
  4  5  1  0
  1  6  1  0
  1  7  1  0
  1  8  1  0
  2  9  1  0
  2 10  1  0
  3 11  1  0
  3 12  1  0
  4 13  1  0
  4 14  1  0
M  END
