
     RDKit          3D

  7  6  0  0  0  0  0  0  0  0999 V2000
   -2.1419    1.0226   -0.0292 N   0  0  0  0  0  0  0  0  0  0  0  0
   -1.1962    0.3557   -0.0113 C   0  0  0  0  0  0  0  0  0  0  0  0
   -0.0006   -0.4889    0.0114 C   0  0  0  0  0  0  0  0  0  0  0  0
    1.1971    0.3528   -0.0053 C   0  0  0  0  0  0  0  0  0  0  0  0
    2.1445    1.0173   -0.0185 N   0  0  0  0  0  0  0  0  0  0  0  0
   -0.0037   -1.1086    0.9317 H   0  0  0  0  0  0  0  0  0  0  0  0
    0.0008   -1.1510   -0.8788 H   0  0  0  0  0  0  0  0  0  0  0  0
  1  2  3  0
  2  3  1  0
  3  4  1  0
  4  5  3  0
  3  6  1  0
  3  7  1  0
M  END
