
     RDKit          3D

 14 13  0  0  0  0  0  0  0  0999 V2000
    2.1171    0.1936    0.0660 C   0  0  0  0  0  0  0  0  0  0  0  0
    0.8304    0.2725   -0.5046 O   0  0  0  0  0  0  0  0  0  0  0  0
   -0.0598   -0.5368    0.2350 C   0  0  0  0  0  0  0  0  0  0  0  0
   -1.4646   -0.4429   -0.3686 C   0  0  0  0  0  0  0  0  0  0  0  0
   -2.0193    0.9048   -0.2499 N   0  0  0  0  0  0  0  0  0  0  0  0
    2.5080   -0.8480    0.0382 H   0  0  0  0  0  0  0  0  0  0  0  0
    2.1197    0.5827    1.1085 H   0  0  0  0  0  0  0  0  0  0  0  0
    2.8070    0.8262   -0.5293 H   0  0  0  0  0  0  0  0  0  0  0  0
    0.2590   -1.6035    0.1927 H   0  0  0  0  0  0  0  0  0  0  0  0
   -0.1045   -0.2149    1.3010 H   0  0  0  0  0  0  0  0  0  0  0  0
   -1.4308   -0.7346   -1.4408 H   0  0  0  0  0  0  0  0  0  0  0  0
   -2.1354   -1.1567    0.1567 H   0  0  0  0  0  0  0  0  0  0  0  0
   -2.0246    1.1827    0.7585 H   0  0  0  0  0  0  0  0  0  0  0  0
   -1.4022    1.5749   -0.7635 H   0  0  0  0  0  0  0  0  0  0  0  0
  1  2  1  0
  2  3  1  0
  3  4  1  0
  4  5  1  0
  1  6  1  0
  1  7  1  0
  1  8  1  0
  3  9  1  0
  3 10  1  0
  4 11  1  0
  4 12  1  0
  5 13  1  0
  5 14  1  0
M  END
