
     RDKit          3D

 20 19  0  0  0  0  0  0  0  0999 V2000
   -2.6799    0.6252   -0.3343 C   0  0  0  0  0  0  0  0  0  0  0  0
   -1.4063   -0.2148   -0.3043 C   0  0  0  0  0  0  0  0  0  0  0  0
   -0.5225    0.1631    0.8931 C   0  0  0  0  0  0  0  0  0  0  0  0
    0.6836   -0.7774    1.0677 C   0  0  0  0  0  0  0  0  0  0  0  0
    1.6860   -0.7664   -0.1002 C   0  0  0  0  0  0  0  0  0  0  0  0
    2.3412    0.5978   -0.3129 C   0  0  0  0  0  0  0  0  0  0  0  0
   -2.4281    1.7047   -0.4090 H   0  0  0  0  0  0  0  0  0  0  0  0
   -3.2920    0.3413   -1.2162 H   0  0  0  0  0  0  0  0  0  0  0  0
   -3.2799    0.4508    0.5843 H   0  0  0  0  0  0  0  0  0  0  0  0
   -1.6858   -1.2891   -0.2437 H   0  0  0  0  0  0  0  0  0  0  0  0
   -0.8544   -0.0436   -1.2527 H   0  0  0  0  0  0  0  0  0  0  0  0
   -1.1319    0.1028    1.8215 H   0  0  0  0  0  0  0  0  0  0  0  0
   -0.1803    1.2153    0.7966 H   0  0  0  0  0  0  0  0  0  0  0  0
    0.3130   -1.8164    1.2067 H   0  0  0  0  0  0  0  0  0  0  0  0
    1.2181   -0.4977    2.0018 H   0  0  0  0  0  0  0  0  0  0  0  0
    1.1974   -1.0988   -1.0398 H   0  0  0  0  0  0  0  0  0  0  0  0
    2.4865   -1.5035    0.1266 H   0  0  0  0  0  0  0  0  0  0  0  0
    3.1614    0.5012   -1.0552 H   0  0  0  0  0  0  0  0  0  0  0  0
    1.6051    1.3282   -0.7081 H   0  0  0  0  0  0  0  0  0  0  0  0
    2.7687    0.9774    0.6394 H   0  0  0  0  0  0  0  0  0  0  0  0
  1  2  1  0
  2  3  1  0
  3  4  1  0
  4  5  1  0
  5  6  1  0
  1  7  1  0
  1  8  1  0
  1  9  1  0
  2 10  1  0
  2 11  1  0
  3 12  1  0
  3 13  1  0
  4 14  1  0
  4 15  1  0
  5 16  1  0
  5 17  1  0
  6 18  1  0
  6 19  1  0
  6 20  1  0
M  END
