
     RDKit          3D

 16 15  0  0  0  0  0  0  0  0999 V2000
   -2.3867    0.8914    0.1945 O   0  0  0  0  0  0  0  0  0  0  0  0
   -1.9605   -0.3925   -0.1697 C   0  0  0  0  0  0  0  0  0  0  0  0
   -0.5080   -0.6066    0.2586 C   0  0  0  0  0  0  0  0  0  0  0  0
    0.4507    0.3229   -0.4976 C   0  0  0  0  0  0  0  0  0  0  0  0
    1.8995    0.0803   -0.0770 C   0  0  0  0  0  0  0  0  0  0  0  0
    2.7421    0.9454   -0.7856 O   0  0  0  0  0  0  0  0  0  0  0  0
   -3.3266    0.9671   -0.1150 H   0  0  0  0  0  0  0  0  0  0  0  0
   -2.5984   -1.1518    0.3351 H   0  0  0  0  0  0  0  0  0  0  0  0
   -2.0537   -0.5286   -1.2708 H   0  0  0  0  0  0  0  0  0  0  0  0
   -0.4207   -0.4298    1.3532 H   0  0  0  0  0  0  0  0  0  0  0  0
   -0.2316   -1.6645    0.0554 H   0  0  0  0  0  0  0  0  0  0  0  0
    0.3563    0.1448   -1.5914 H   0  0  0  0  0  0  0  0  0  0  0  0
    0.1874    1.3830   -0.2891 H   0  0  0  0  0  0  0  0  0  0  0  0
    2.1796   -0.9749   -0.2953 H   0  0  0  0  0  0  0  0  0  0  0  0
    2.0067    0.2669    1.0153 H   0  0  0  0  0  0  0  0  0  0  0  0
    3.6638    0.7467   -0.4756 H   0  0  0  0  0  0  0  0  0  0  0  0
  1  2  1  0
  2  3  1  0
  3  4  1  0
  4  5  1  0
  5  6  1  0
  1  7  1  0
  2  8  1  0
  2  9  1  0
  3 10  1  0
  3 11  1  0
  4 12  1  0
  4 13  1  0
  5 14  1  0
  5 15  1  0
  6 16  1  0
M  END
