
     RDKit          3D

 15 15  0  0  0  0  0  0  0  0999 V2000
    3.0736    0.4686   -0.4734 O   0  0  0  0  0  0  0  0  0  0  0  0
    2.0981   -0.5254   -0.5453 C   0  0  0  0  0  0  0  0  0  0  0  0
    2.4457   -1.6829   -0.9012 O   0  0  0  0  0  0  0  0  0  0  0  0
    0.6806   -0.2565   -0.2003 C   0  0  0  0  0  0  0  0  0  0  0  0
   -0.1695   -1.3197    0.1578 C   0  0  0  0  0  0  0  0  0  0  0  0
   -1.5083   -1.0804    0.4819 C   0  0  0  0  0  0  0  0  0  0  0  0
   -2.0170    0.2206    0.4456 C   0  0  0  0  0  0  0  0  0  0  0  0
   -3.6975    0.5186    0.8505 Cl  0  0  0  0  0  0  0  0  0  0  0  0
   -1.1859    1.2830    0.0799 C   0  0  0  0  0  0  0  0  0  0  0  0
    0.1542    1.0485   -0.2441 C   0  0  0  0  0  0  0  0  0  0  0  0
    2.8878    1.3896   -0.0986 H   0  0  0  0  0  0  0  0  0  0  0  0
    0.2035   -2.3358    0.1972 H   0  0  0  0  0  0  0  0  0  0  0  0
   -2.1488   -1.9073    0.7612 H   0  0  0  0  0  0  0  0  0  0  0  0
   -1.5787    2.2911    0.0399 H   0  0  0  0  0  0  0  0  0  0  0  0
    0.7623    1.8881   -0.5512 H   0  0  0  0  0  0  0  0  0  0  0  0
  1  2  1  0
  2  3  2  0
  2  4  1  0
  4  5  2  0
  5  6  1  0
  6  7  2  0
  7  8  1  0
  7  9  1  0
  9 10  2  0
 10  4  1  0
  1 11  1  0
  5 12  1  0
  6 13  1  0
  9 14  1  0
 10 15  1  0
M  END
