
     RDKit          3D

 11 11  0  0  0  0  0  0  0  0999 V2000
   -0.0224    1.1740    0.0277 C   0  0  0  0  0  0  0  0  0  0  0  0
    1.1987    0.4961    0.0401 C   0  0  0  0  0  0  0  0  0  0  0  0
    1.2047   -0.9010    0.0066 C   0  0  0  0  0  0  0  0  0  0  0  0
    0.0303   -1.5864   -0.0375 N   0  0  0  0  0  0  0  0  0  0  0  0
   -1.1695   -0.9450   -0.0502 C   0  0  0  0  0  0  0  0  0  0  0  0
   -1.2168    0.4514   -0.0177 C   0  0  0  0  0  0  0  0  0  0  0  0
   -0.0431    2.2559    0.0533 H   0  0  0  0  0  0  0  0  0  0  0  0
    2.1299    1.0467    0.0752 H   0  0  0  0  0  0  0  0  0  0  0  0
    2.1425   -1.4402    0.0156 H   0  0  0  0  0  0  0  0  0  0  0  0
   -2.0860   -1.5185   -0.0855 H   0  0  0  0  0  0  0  0  0  0  0  0
   -2.1684    0.9670   -0.0276 H   0  0  0  0  0  0  0  0  0  0  0  0
  1  2  2  0
  2  3  1  0
  3  4  2  0
  4  5  1  0
  5  6  2  0
  6  1  1  0
  1  7  1  0
  2  8  1  0
  3  9  1  0
  5 10  1  0
  6 11  1  0
M  END
