
     RDKit          3D

 17 16  0  0  0  0  0  0  0  0999 V2000
   -3.1186    0.2756   -0.9452 O   0  0  0  0  0  0  0  0  0  0  0  0
   -2.2977    0.7556    0.0704 C   0  0  0  0  0  0  0  0  0  0  0  0
   -2.4510    1.9291    0.5031 O   0  0  0  0  0  0  0  0  0  0  0  0
   -1.2032   -0.1071    0.6139 C   0  0  0  0  0  0  0  0  0  0  0  0
    0.0779    0.0732   -0.2053 C   0  0  0  0  0  0  0  0  0  0  0  0
    1.2058   -0.8086    0.3382 C   0  0  0  0  0  0  0  0  0  0  0  0
    2.4539   -0.6209   -0.4700 C   0  0  0  0  0  0  0  0  0  0  0  0
    3.3129    0.4426   -0.2085 O   0  0  0  0  0  0  0  0  0  0  0  0
    2.7118   -1.4066   -1.4194 O   0  0  0  0  0  0  0  0  0  0  0  0
   -3.8538    0.8530   -1.3354 H   0  0  0  0  0  0  0  0  0  0  0  0
   -1.5282   -1.1696    0.5769 H   0  0  0  0  0  0  0  0  0  0  0  0
   -1.0143    0.1615    1.6764 H   0  0  0  0  0  0  0  0  0  0  0  0
   -0.1219   -0.1977   -1.2662 H   0  0  0  0  0  0  0  0  0  0  0  0
    0.3927    1.1400   -0.1658 H   0  0  0  0  0  0  0  0  0  0  0  0
    1.4155   -0.5444    1.3974 H   0  0  0  0  0  0  0  0  0  0  0  0
    0.8995   -1.8772    0.3034 H   0  0  0  0  0  0  0  0  0  0  0  0
    3.1189    1.1014    0.5362 H   0  0  0  0  0  0  0  0  0  0  0  0
  1  2  1  0
  2  3  2  0
  2  4  1  0
  4  5  1  0
  5  6  1  0
  6  7  1  0
  7  8  1  0
  7  9  2  0
  1 10  1  0
  4 11  1  0
  4 12  1  0
  5 13  1  0
  5 14  1  0
  6 15  1  0
  6 16  1  0
  8 17  1  0
M  END
