
     RDKit          3D

 25 24  0  0  0  0  0  0  0  0999 V2000
   -4.8990    0.2651   -0.2584 C   0  0  0  0  0  0  0  0  0  0  0  0
   -3.4353    0.3594   -0.6791 C   0  0  0  0  0  0  0  0  0  0  0  0
   -2.5001    0.0957    0.5067 C   0  0  0  0  0  0  0  0  0  0  0  0
   -1.0306    0.1913    0.0802 C   0  0  0  0  0  0  0  0  0  0  0  0
   -0.0977   -0.0722    1.2650 C   0  0  0  0  0  0  0  0  0  0  0  0
    1.3041    0.0223    0.8434 C   0  0  0  0  0  0  0  0  0  0  0  0
    2.4561    0.1000    0.4966 C   0  0  0  0  0  0  0  0  0  0  0  0
    3.8269    0.1919    0.0833 C   0  0  0  0  0  0  0  0  0  0  0  0
    4.2288    1.2270   -0.5129 O   0  0  0  0  0  0  0  0  0  0  0  0
    4.6970   -0.8683    0.3478 O   0  0  0  0  0  0  0  0  0  0  0  0
    6.0675   -0.8468   -0.0327 C   0  0  0  0  0  0  0  0  0  0  0  0
   -5.1244    1.0185    0.5262 H   0  0  0  0  0  0  0  0  0  0  0  0
   -5.5512    0.4602   -1.1357 H   0  0  0  0  0  0  0  0  0  0  0  0
   -5.1237   -0.7503    0.1322 H   0  0  0  0  0  0  0  0  0  0  0  0
   -3.2432   -0.3862   -1.4813 H   0  0  0  0  0  0  0  0  0  0  0  0
   -3.2439    1.3751   -1.0891 H   0  0  0  0  0  0  0  0  0  0  0  0
   -2.6998   -0.9203    0.9137 H   0  0  0  0  0  0  0  0  0  0  0  0
   -2.7006    0.8427    1.3063 H   0  0  0  0  0  0  0  0  0  0  0  0
   -0.8312    1.2077   -0.3271 H   0  0  0  0  0  0  0  0  0  0  0  0
   -0.8304   -0.5561   -0.7199 H   0  0  0  0  0  0  0  0  0  0  0  0
   -0.2796    0.6752    2.0666 H   0  0  0  0  0  0  0  0  0  0  0  0
   -0.2789   -1.0893    1.6736 H   0  0  0  0  0  0  0  0  0  0  0  0
    6.1545   -0.7499   -1.1357 H   0  0  0  0  0  0  0  0  0  0  0  0
    6.5859    0.0024    0.4609 H   0  0  0  0  0  0  0  0  0  0  0  0
    6.5487   -1.7948    0.2839 H   0  0  0  0  0  0  0  0  0  0  0  0
  1  2  1  0
  2  3  1  0
  3  4  1  0
  4  5  1  0
  5  6  1  0
  6  7  3  0
  7  8  1  0
  8  9  2  0
  8 10  1  0
 10 11  1  0
  1 12  1  0
  1 13  1  0
  1 14  1  0
  2 15  1  0
  2 16  1  0
  3 17  1  0
  3 18  1  0
  4 19  1  0
  4 20  1  0
  5 21  1  0
  5 22  1  0
 11 23  1  0
 11 24  1  0
 11 25  1  0
M  END
