
     RDKit          3D

 20 19  0  0  0  0  0  0  0  0999 V2000
   -2.3276    0.6211    0.5392 C   0  0  0  0  0  0  0  0  0  0  0  0
   -1.7330   -0.7161    0.0992 C   0  0  0  0  0  0  0  0  0  0  0  0
   -0.7547   -0.5809   -1.0813 C   0  0  0  0  0  0  0  0  0  0  0  0
    0.4898    0.2785   -0.7944 C   0  0  0  0  0  0  0  0  0  0  0  0
    1.3796   -0.3084    0.3110 C   0  0  0  0  0  0  0  0  0  0  0  0
    2.6857    0.4737    0.4362 C   0  0  0  0  0  0  0  0  0  0  0  0
    3.7771   -0.2744    1.8515 Br  0  0  0  0  0  0  0  0  0  0  0  0
   -2.7574    1.1615   -0.3308 H   0  0  0  0  0  0  0  0  0  0  0  0
   -3.1365    0.4398    1.2780 H   0  0  0  0  0  0  0  0  0  0  0  0
   -1.5546    1.2523    1.0248 H   0  0  0  0  0  0  0  0  0  0  0  0
   -1.2403   -1.2102    0.9625 H   0  0  0  0  0  0  0  0  0  0  0  0
   -2.5672   -1.3780   -0.2195 H   0  0  0  0  0  0  0  0  0  0  0  0
   -1.2961   -0.1413   -1.9472 H   0  0  0  0  0  0  0  0  0  0  0  0
   -0.4271   -1.5982   -1.3881 H   0  0  0  0  0  0  0  0  0  0  0  0
    0.1902    1.3151   -0.5315 H   0  0  0  0  0  0  0  0  0  0  0  0
    1.0797    0.3389   -1.7353 H   0  0  0  0  0  0  0  0  0  0  0  0
    0.8480   -0.2631    1.2850 H   0  0  0  0  0  0  0  0  0  0  0  0
    1.6134   -1.3704    0.0792 H   0  0  0  0  0  0  0  0  0  0  0  0
    3.2571    0.4226   -0.5150 H   0  0  0  0  0  0  0  0  0  0  0  0
    2.4738    1.5374    0.6766 H   0  0  0  0  0  0  0  0  0  0  0  0
  1  2  1  0
  2  3  1  0
  3  4  1  0
  4  5  1  0
  5  6  1  0
  6  7  1  0
  1  8  1  0
  1  9  1  0
  1 10  1  0
  2 11  1  0
  2 12  1  0
  3 13  1  0
  3 14  1  0
  4 15  1  0
  4 16  1  0
  5 17  1  0
  5 18  1  0
  6 19  1  0
  6 20  1  0
M  END
