
     RDKit          3D

 24 23  0  0  0  0  0  0  0  0999 V2000
    4.0373   -0.0213   -0.2125 C   0  0  0  0  0  0  0  0  0  0  0  0
    2.7623   -0.2670    0.5890 C   0  0  0  0  0  0  0  0  0  0  0  0
    1.5153    0.0655   -0.2382 C   0  0  0  0  0  0  0  0  0  0  0  0
    0.2365   -0.1827    0.5705 C   0  0  0  0  0  0  0  0  0  0  0  0
   -1.0113    0.1497   -0.2563 C   0  0  0  0  0  0  0  0  0  0  0  0
   -2.2899   -0.0987    0.5528 C   0  0  0  0  0  0  0  0  0  0  0  0
   -3.5356    0.2315   -0.2681 C   0  0  0  0  0  0  0  0  0  0  0  0
   -4.6794   -0.0075    0.5032 O   0  0  0  0  0  0  0  0  0  0  0  0
    4.1040    1.0459   -0.5139 H   0  0  0  0  0  0  0  0  0  0  0  0
    4.0515   -0.6609   -1.1207 H   0  0  0  0  0  0  0  0  0  0  0  0
    4.9219   -0.2701    0.4108 H   0  0  0  0  0  0  0  0  0  0  0  0
    2.7330   -1.3344    0.8993 H   0  0  0  0  0  0  0  0  0  0  0  0
    2.7853    0.3651    1.5035 H   0  0  0  0  0  0  0  0  0  0  0  0
    1.5011   -0.5678   -1.1528 H   0  0  0  0  0  0  0  0  0  0  0  0
    1.5534    1.1333   -0.5479 H   0  0  0  0  0  0  0  0  0  0  0  0
    0.1987   -1.2505    0.8803 H   0  0  0  0  0  0  0  0  0  0  0  0
    0.2510    0.4505    1.4851 H   0  0  0  0  0  0  0  0  0  0  0  0
   -1.0260   -0.4835   -1.1709 H   0  0  0  0  0  0  0  0  0  0  0  0
   -0.9736    1.2175   -0.5661 H   0  0  0  0  0  0  0  0  0  0  0  0
   -2.2802    0.5342    1.4675 H   0  0  0  0  0  0  0  0  0  0  0  0
   -2.3325   -1.1660    0.8630 H   0  0  0  0  0  0  0  0  0  0  0  0
   -3.5084    1.3020   -0.5730 H   0  0  0  0  0  0  0  0  0  0  0  0
   -3.5609   -0.4062   -1.1803 H   0  0  0  0  0  0  0  0  0  0  0  0
   -5.4534    0.2217   -0.0742 H   0  0  0  0  0  0  0  0  0  0  0  0
  1  2  1  0
  2  3  1  0
  3  4  1  0
  4  5  1  0
  5  6  1  0
  6  7  1  0
  7  8  1  0
  1  9  1  0
  1 10  1  0
  1 11  1  0
  2 12  1  0
  2 13  1  0
  3 14  1  0
  3 15  1  0
  4 16  1  0
  4 17  1  0
  5 18  1  0
  5 19  1  0
  6 20  1  0
  6 21  1  0
  7 22  1  0
  7 23  1  0
  8 24  1  0
M  END
