
     RDKit          3D

 26 25  0  0  0  0  0  0  0  0999 V2000
   -4.2854   -0.1523    0.3169 C   0  0  0  0  0  0  0  0  0  0  0  0
   -3.0194   -0.6660   -0.3627 C   0  0  0  0  0  0  0  0  0  0  0  0
   -1.7808    0.0922    0.1281 C   0  0  0  0  0  0  0  0  0  0  0  0
   -0.5109   -0.4270   -0.5568 C   0  0  0  0  0  0  0  0  0  0  0  0
    0.7289    0.3315   -0.0675 C   0  0  0  0  0  0  0  0  0  0  0  0
    2.0011   -0.1993   -0.7455 C   0  0  0  0  0  0  0  0  0  0  0  0
    3.2505    0.6305   -0.4001 C   0  0  0  0  0  0  0  0  0  0  0  0
    3.7179    0.4769    1.0522 C   0  0  0  0  0  0  0  0  0  0  0  0
    4.2723   -1.1849    1.3918 Cl  0  0  0  0  0  0  0  0  0  0  0  0
   -5.1641   -0.7186   -0.0573 H   0  0  0  0  0  0  0  0  0  0  0  0
   -4.4347    0.9251    0.0909 H   0  0  0  0  0  0  0  0  0  0  0  0
   -4.2161   -0.2905    1.4170 H   0  0  0  0  0  0  0  0  0  0  0  0
   -3.1253   -0.5397   -1.4623 H   0  0  0  0  0  0  0  0  0  0  0  0
   -2.9076   -1.7500   -0.1418 H   0  0  0  0  0  0  0  0  0  0  0  0
   -1.6838   -0.0356    1.2290 H   0  0  0  0  0  0  0  0  0  0  0  0
   -1.9013    1.1758   -0.0930 H   0  0  0  0  0  0  0  0  0  0  0  0
   -0.6097   -0.3004   -1.6576 H   0  0  0  0  0  0  0  0  0  0  0  0
   -0.3900   -1.5105   -0.3350 H   0  0  0  0  0  0  0  0  0  0  0  0
    0.8118    0.2079    1.0331 H   0  0  0  0  0  0  0  0  0  0  0  0
    0.6104    1.4134   -0.2966 H   0  0  0  0  0  0  0  0  0  0  0  0
    2.1584   -1.2648   -0.4726 H   0  0  0  0  0  0  0  0  0  0  0  0
    1.8619   -0.1571   -1.8481 H   0  0  0  0  0  0  0  0  0  0  0  0
    3.0485    1.7045   -0.6043 H   0  0  0  0  0  0  0  0  0  0  0  0
    4.0802    0.3210   -1.0722 H   0  0  0  0  0  0  0  0  0  0  0  0
    2.9143    0.7543    1.7639 H   0  0  0  0  0  0  0  0  0  0  0  0
    4.5729    1.1634    1.2276 H   0  0  0  0  0  0  0  0  0  0  0  0
  1  2  1  0
  2  3  1  0
  3  4  1  0
  4  5  1  0
  5  6  1  0
  6  7  1  0
  7  8  1  0
  8  9  1  0
  1 10  1  0
  1 11  1  0
  1 12  1  0
  2 13  1  0
  2 14  1  0
  3 15  1  0
  3 16  1  0
  4 17  1  0
  4 18  1  0
  5 19  1  0
  5 20  1  0
  6 21  1  0
  6 22  1  0
  7 23  1  0
  7 24  1  0
  8 25  1  0
  8 26  1  0
M  END
