
     RDKit          3D

 38 37  0  0  0  0  0  0  0  0999 V2000
   -5.7096    0.5160    0.1652 C   0  0  0  0  0  0  0  0  0  0  0  0
   -4.5075   -0.1828   -0.4685 C   0  0  0  0  0  0  0  0  0  0  0  0
   -3.3207    0.7667   -0.7089 C   0  0  0  0  0  0  0  0  0  0  0  0
   -2.7233    1.3922    0.5674 C   0  0  0  0  0  0  0  0  0  0  0  0
   -2.2361    0.3827    1.6261 C   0  0  0  0  0  0  0  0  0  0  0  0
   -1.1953   -0.6342    1.1244 C   0  0  0  0  0  0  0  0  0  0  0  0
    0.1059    0.0290    0.6500 C   0  0  0  0  0  0  0  0  0  0  0  0
    1.1671   -1.0245    0.3107 C   0  0  0  0  0  0  0  0  0  0  0  0
    2.4614   -0.3644   -0.1786 C   0  0  0  0  0  0  0  0  0  0  0  0
    3.5229   -1.4155   -0.5157 C   0  0  0  0  0  0  0  0  0  0  0  0
    4.7044   -0.7912   -1.0144 O   0  0  0  0  0  0  0  0  0  0  0  0
    5.6253   -0.1233   -0.1995 C   0  0  0  0  0  0  0  0  0  0  0  0
    6.8170    0.5248   -0.8177 C   0  0  0  0  0  0  0  0  0  0  0  0
    5.4856   -0.1052    1.0537 O   0  0  0  0  0  0  0  0  0  0  0  0
   -5.4839    0.8133    1.2102 H   0  0  0  0  0  0  0  0  0  0  0  0
   -6.5738   -0.1810    0.1842 H   0  0  0  0  0  0  0  0  0  0  0  0
   -5.9923    1.4143   -0.4239 H   0  0  0  0  0  0  0  0  0  0  0  0
   -4.1998   -1.0442    0.1603 H   0  0  0  0  0  0  0  0  0  0  0  0
   -4.8241   -0.5952   -1.4510 H   0  0  0  0  0  0  0  0  0  0  0  0
   -3.6519    1.5895   -1.3794 H   0  0  0  0  0  0  0  0  0  0  0  0
   -2.5270    0.2185   -1.2590 H   0  0  0  0  0  0  0  0  0  0  0  0
   -1.8796    2.0529    0.2758 H   0  0  0  0  0  0  0  0  0  0  0  0
   -3.4787    2.0580    1.0361 H   0  0  0  0  0  0  0  0  0  0  0  0
   -1.7988    0.9513    2.4757 H   0  0  0  0  0  0  0  0  0  0  0  0
   -3.1076   -0.1691    2.0375 H   0  0  0  0  0  0  0  0  0  0  0  0
   -0.9615   -1.3198    1.9683 H   0  0  0  0  0  0  0  0  0  0  0  0
   -1.6247   -1.2563    0.3109 H   0  0  0  0  0  0  0  0  0  0  0  0
   -0.0956    0.6381   -0.2571 H   0  0  0  0  0  0  0  0  0  0  0  0
    0.4938    0.6974    1.4499 H   0  0  0  0  0  0  0  0  0  0  0  0
    1.3853   -1.6329    1.2161 H   0  0  0  0  0  0  0  0  0  0  0  0
    0.7747   -1.6987   -0.4826 H   0  0  0  0  0  0  0  0  0  0  0  0
    2.2506    0.2401   -1.0880 H   0  0  0  0  0  0  0  0  0  0  0  0
    2.8502    0.3138    0.6114 H   0  0  0  0  0  0  0  0  0  0  0  0
    3.7643   -2.0314    0.3786 H   0  0  0  0  0  0  0  0  0  0  0  0
    3.1289   -2.0925   -1.3034 H   0  0  0  0  0  0  0  0  0  0  0  0
    6.6018    0.7825   -1.8759 H   0  0  0  0  0  0  0  0  0  0  0  0
    7.6787   -0.1735   -0.7805 H   0  0  0  0  0  0  0  0  0  0  0  0
    7.0739    1.4547   -0.2677 H   0  0  0  0  0  0  0  0  0  0  0  0
  1  2  1  0
  2  3  1  0
  3  4  1  0
  4  5  1  0
  5  6  1  0
  6  7  1  0
  7  8  1  0
  8  9  1  0
  9 10  1  0
 10 11  1  0
 11 12  1  0
 12 13  1  0
 12 14  2  0
  1 15  1  0
  1 16  1  0
  1 17  1  0
  2 18  1  0
  2 19  1  0
  3 20  1  0
  3 21  1  0
  4 22  1  0
  4 23  1  0
  5 24  1  0
  5 25  1  0
  6 26  1  0
  6 27  1  0
  7 28  1  0
  7 29  1  0
  8 30  1  0
  8 31  1  0
  9 32  1  0
  9 33  1  0
 10 34  1  0
 10 35  1  0
 13 36  1  0
 13 37  1  0
 13 38  1  0
M  END
