
     RDKit          3D

 36 35  0  0  0  0  0  0  0  0999 V2000
   -4.7999   -0.4532   -1.2942 C   0  0  0  0  0  0  0  0  0  0  0  0
   -4.6621    0.3172    0.0186 C   0  0  0  0  0  0  0  0  0  0  0  0
   -3.2177    0.7611    0.2969 C   0  0  0  0  0  0  0  0  0  0  0  0
   -2.2883   -0.4239    0.6144 C   0  0  0  0  0  0  0  0  0  0  0  0
   -0.9187    0.0233    1.1505 C   0  0  0  0  0  0  0  0  0  0  0  0
   -0.0334    0.6479    0.0586 C   0  0  0  0  0  0  0  0  0  0  0  0
    1.3201    1.1445    0.5988 C   0  0  0  0  0  0  0  0  0  0  0  0
    2.2373    0.0474    1.1758 C   0  0  0  0  0  0  0  0  0  0  0  0
    2.5604   -1.1114    0.2116 C   0  0  0  0  0  0  0  0  0  0  0  0
    3.2021   -0.6862   -1.1232 C   0  0  0  0  0  0  0  0  0  0  0  0
    4.5503    0.0230   -0.9616 C   0  0  0  0  0  0  0  0  0  0  0  0
    5.4536   -0.8001   -0.2766 O   0  0  0  0  0  0  0  0  0  0  0  0
   -4.3833    0.1377   -2.1375 H   0  0  0  0  0  0  0  0  0  0  0  0
   -5.8742   -0.6481   -1.4964 H   0  0  0  0  0  0  0  0  0  0  0  0
   -4.2772   -1.4302   -1.2328 H   0  0  0  0  0  0  0  0  0  0  0  0
   -5.0399   -0.3064    0.8578 H   0  0  0  0  0  0  0  0  0  0  0  0
   -5.3029    1.2236   -0.0402 H   0  0  0  0  0  0  0  0  0  0  0  0
   -3.2349    1.4528    1.1672 H   0  0  0  0  0  0  0  0  0  0  0  0
   -2.8357    1.3275   -0.5789 H   0  0  0  0  0  0  0  0  0  0  0  0
   -2.1420   -1.0508   -0.2913 H   0  0  0  0  0  0  0  0  0  0  0  0
   -2.7677   -1.0589    1.3914 H   0  0  0  0  0  0  0  0  0  0  0  0
   -1.0560    0.7413    1.9884 H   0  0  0  0  0  0  0  0  0  0  0  0
   -0.4125   -0.8777    1.5565 H   0  0  0  0  0  0  0  0  0  0  0  0
    0.1228   -0.0768   -0.7678 H   0  0  0  0  0  0  0  0  0  0  0  0
   -0.5536    1.5274   -0.3748 H   0  0  0  0  0  0  0  0  0  0  0  0
    1.8553    1.6792   -0.2144 H   0  0  0  0  0  0  0  0  0  0  0  0
    1.1321    1.8974    1.3950 H   0  0  0  0  0  0  0  0  0  0  0  0
    3.1851    0.5196    1.5103 H   0  0  0  0  0  0  0  0  0  0  0  0
    1.7744   -0.3738    2.0929 H   0  0  0  0  0  0  0  0  0  0  0  0
    3.2422   -1.8190    0.7312 H   0  0  0  0  0  0  0  0  0  0  0  0
    1.6319   -1.6816   -0.0030 H   0  0  0  0  0  0  0  0  0  0  0  0
    3.3580   -1.5982   -1.7395 H   0  0  0  0  0  0  0  0  0  0  0  0
    2.5078   -0.0323   -1.6914 H   0  0  0  0  0  0  0  0  0  0  0  0
    4.4181    0.9850   -0.4200 H   0  0  0  0  0  0  0  0  0  0  0  0
    4.9532    0.2526   -1.9730 H   0  0  0  0  0  0  0  0  0  0  0  0
    6.2953   -0.2800   -0.1993 H   0  0  0  0  0  0  0  0  0  0  0  0
  1  2  1  0
  2  3  1  0
  3  4  1  0
  4  5  1  0
  5  6  1  0
  6  7  1  0
  7  8  1  0
  8  9  1  0
  9 10  1  0
 10 11  1  0
 11 12  1  0
  1 13  1  0
  1 14  1  0
  1 15  1  0
  2 16  1  0
  2 17  1  0
  3 18  1  0
  3 19  1  0
  4 20  1  0
  4 21  1  0
  5 22  1  0
  5 23  1  0
  6 24  1  0
  6 25  1  0
  7 26  1  0
  7 27  1  0
  8 28  1  0
  8 29  1  0
  9 30  1  0
  9 31  1  0
 10 32  1  0
 10 33  1  0
 11 34  1  0
 11 35  1  0
 12 36  1  0
M  END
