
     RDKit          3D

 34 33  0  0  0  0  0  0  0  0999 V2000
   -5.0237   -1.5489    0.3208 O   0  0  0  0  0  0  0  0  0  0  0  0
   -5.1396   -0.1931   -0.0183 C   0  0  0  0  0  0  0  0  0  0  0  0
   -3.8903    0.2951   -0.7596 C   0  0  0  0  0  0  0  0  0  0  0  0
   -2.6381    0.2175    0.1238 C   0  0  0  0  0  0  0  0  0  0  0  0
   -1.4044    0.7361   -0.6246 C   0  0  0  0  0  0  0  0  0  0  0  0
   -0.1521    0.6584    0.2567 C   0  0  0  0  0  0  0  0  0  0  0  0
    1.0852    1.1631   -0.5000 C   0  0  0  0  0  0  0  0  0  0  0  0
    2.3363    1.2544    0.3919 C   0  0  0  0  0  0  0  0  0  0  0  0
    2.8012   -0.0821    1.0054 C   0  0  0  0  0  0  0  0  0  0  0  0
    3.0894   -1.2008   -0.0115 C   0  0  0  0  0  0  0  0  0  0  0  0
    4.2149   -0.8437   -0.9894 C   0  0  0  0  0  0  0  0  0  0  0  0
    4.5232   -1.9487   -1.7947 O   0  0  0  0  0  0  0  0  0  0  0  0
   -5.1582   -2.0638   -0.5174 H   0  0  0  0  0  0  0  0  0  0  0  0
   -5.2802    0.4002    0.9103 H   0  0  0  0  0  0  0  0  0  0  0  0
   -6.0380   -0.0333   -0.6567 H   0  0  0  0  0  0  0  0  0  0  0  0
   -3.7445   -0.3179   -1.6759 H   0  0  0  0  0  0  0  0  0  0  0  0
   -4.0553    1.3493   -1.0725 H   0  0  0  0  0  0  0  0  0  0  0  0
   -2.4644   -0.8382    0.4278 H   0  0  0  0  0  0  0  0  0  0  0  0
   -2.7957    0.8281    1.0402 H   0  0  0  0  0  0  0  0  0  0  0  0
   -1.2468    0.1259   -1.5414 H   0  0  0  0  0  0  0  0  0  0  0  0
   -1.5762    1.7925   -0.9282 H   0  0  0  0  0  0  0  0  0  0  0  0
    0.0043   -0.3981    0.5631 H   0  0  0  0  0  0  0  0  0  0  0  0
   -0.3053    1.2759    1.1691 H   0  0  0  0  0  0  0  0  0  0  0  0
    0.8758    2.1834   -0.8899 H   0  0  0  0  0  0  0  0  0  0  0  0
    1.2854    0.5159   -1.3799 H   0  0  0  0  0  0  0  0  0  0  0  0
    3.1660    1.6958   -0.2000 H   0  0  0  0  0  0  0  0  0  0  0  0
    2.1315    1.9662    1.2212 H   0  0  0  0  0  0  0  0  0  0  0  0
    2.0374   -0.4421    1.7269 H   0  0  0  0  0  0  0  0  0  0  0  0
    3.7232    0.1078    1.5969 H   0  0  0  0  0  0  0  0  0  0  0  0
    3.3899   -2.1074    0.5576 H   0  0  0  0  0  0  0  0  0  0  0  0
    2.1687   -1.4635   -0.5736 H   0  0  0  0  0  0  0  0  0  0  0  0
    3.8877   -0.0159   -1.6521 H   0  0  0  0  0  0  0  0  0  0  0  0
    5.1202   -0.5064   -0.4345 H   0  0  0  0  0  0  0  0  0  0  0  0
    5.0726   -2.5614   -1.2391 H   0  0  0  0  0  0  0  0  0  0  0  0
  1  2  1  0
  2  3  1  0
  3  4  1  0
  4  5  1  0
  5  6  1  0
  6  7  1  0
  7  8  1  0
  8  9  1  0
  9 10  1  0
 10 11  1  0
 11 12  1  0
  1 13  1  0
  2 14  1  0
  2 15  1  0
  3 16  1  0
  3 17  1  0
  4 18  1  0
  4 19  1  0
  5 20  1  0
  5 21  1  0
  6 22  1  0
  6 23  1  0
  7 24  1  0
  7 25  1  0
  8 26  1  0
  8 27  1  0
  9 28  1  0
  9 29  1  0
 10 30  1  0
 10 31  1  0
 11 32  1  0
 11 33  1  0
 12 34  1  0
M  END
