
     RDKit          3D

 16 15  0  0  0  0  0  0  0  0999 V2000
   -0.8619    1.1905   -0.0703 C   0  0  0  0  0  0  0  0  0  0  0  0
   -0.1115   -0.1227   -0.3766 C   0  0  0  0  0  0  0  0  0  0  0  0
   -1.1421   -1.2327   -0.6326 C   0  0  0  0  0  0  0  0  0  0  0  0
    0.6660    0.0137   -1.5434 O   0  0  0  0  0  0  0  0  0  0  0  0
    0.7705   -0.5240    0.7962 C   0  0  0  0  0  0  0  0  0  0  0  0
    1.7915    0.2273    1.2264 C   0  0  0  0  0  0  0  0  0  0  0  0
   -0.1509    2.0267    0.0982 H   0  0  0  0  0  0  0  0  0  0  0  0
   -1.5176    1.4673   -0.9237 H   0  0  0  0  0  0  0  0  0  0  0  0
   -1.4906    1.0778    0.8395 H   0  0  0  0  0  0  0  0  0  0  0  0
   -1.7879   -0.9695   -1.4980 H   0  0  0  0  0  0  0  0  0  0  0  0
   -1.7891   -1.3856    0.2587 H   0  0  0  0  0  0  0  0  0  0  0  0
   -0.6278   -2.1902   -0.8659 H   0  0  0  0  0  0  0  0  0  0  0  0
    1.2426    0.8156   -1.4453 H   0  0  0  0  0  0  0  0  0  0  0  0
    0.5786   -1.4606    1.3141 H   0  0  0  0  0  0  0  0  0  0  0  0
    2.0386    1.1730    0.7560 H   0  0  0  0  0  0  0  0  0  0  0  0
    2.3917   -0.1064    2.0667 H   0  0  0  0  0  0  0  0  0  0  0  0
  1  2  1  0
  2  3  1  0
  2  4  1  0
  2  5  1  0
  5  6  2  3
  1  7  1  0
  1  8  1  0
  1  9  1  0
  3 10  1  0
  3 11  1  0
  3 12  1  0
  4 13  1  0
  5 14  1  0
  6 15  1  0
  6 16  1  0
M  END
