
     RDKit          3D

  9  8  0  0  0  0  0  0  0  0999 V2000
   -1.6231    0.0743    0.1378 O   0  0  0  0  0  0  0  0  0  0  0  0
   -0.4128   -0.5688   -0.1648 C   0  0  0  0  0  0  0  0  0  0  0  0
    0.7851    0.2890    0.2559 C   0  0  0  0  0  0  0  0  0  0  0  0
    0.7086    0.6550    1.9997 Cl  0  0  0  0  0  0  0  0  0  0  0  0
    2.2965   -0.5961   -0.0712 Cl  0  0  0  0  0  0  0  0  0  0  0  0
    0.8183    1.8194   -0.6594 Cl  0  0  0  0  0  0  0  0  0  0  0  0
   -1.8366    0.6649   -0.6309 H   0  0  0  0  0  0  0  0  0  0  0  0
   -0.3827   -1.5333    0.3856 H   0  0  0  0  0  0  0  0  0  0  0  0
   -0.3532   -0.8044   -1.2527 H   0  0  0  0  0  0  0  0  0  0  0  0
  1  2  1  0
  2  3  1  0
  3  4  1  0
  3  5  1  0
  3  6  1  0
  1  7  1  0
  2  8  1  0
  2  9  1  0
M  END
