
     RDKit          3D

 25 26  0  0  0  0  0  0  0  0999 V2000
   -2.2730   -1.8205   -1.6602 O   0  0  0  0  0  0  0  0  0  0  0  0
   -2.3489   -0.7166   -0.8084 C   0  0  0  0  0  0  0  0  0  0  0  0
   -3.5085    0.0680   -0.8436 C   0  0  0  0  0  0  0  0  0  0  0  0
   -3.6199    1.2054   -0.0412 C   0  0  0  0  0  0  0  0  0  0  0  0
   -2.5731    1.5666    0.8075 C   0  0  0  0  0  0  0  0  0  0  0  0
   -1.4154    0.7872    0.8619 C   0  0  0  0  0  0  0  0  0  0  0  0
   -1.2892   -0.3613    0.0602 C   0  0  0  0  0  0  0  0  0  0  0  0
   -0.0715   -1.1930    0.1831 C   0  0  0  0  0  0  0  0  0  0  0  0
   -0.2017   -2.4250    0.4201 O   0  0  0  0  0  0  0  0  0  0  0  0
    1.2908   -0.6108    0.0726 C   0  0  0  0  0  0  0  0  0  0  0  0
    1.5049    0.6194   -0.5800 C   0  0  0  0  0  0  0  0  0  0  0  0
    2.7937    1.1514   -0.6840 C   0  0  0  0  0  0  0  0  0  0  0  0
    3.8824    0.4621   -0.1459 C   0  0  0  0  0  0  0  0  0  0  0  0
    3.6852   -0.7632    0.4941 C   0  0  0  0  0  0  0  0  0  0  0  0
    2.3986   -1.3003    0.6009 C   0  0  0  0  0  0  0  0  0  0  0  0
   -1.4403   -2.3869   -1.7569 H   0  0  0  0  0  0  0  0  0  0  0  0
   -4.3224   -0.2000   -1.5054 H   0  0  0  0  0  0  0  0  0  0  0  0
   -4.5179    1.8084   -0.0792 H   0  0  0  0  0  0  0  0  0  0  0  0
   -2.6616    2.4475    1.4302 H   0  0  0  0  0  0  0  0  0  0  0  0
   -0.6212    1.0717    1.5415 H   0  0  0  0  0  0  0  0  0  0  0  0
    0.6812    1.1649   -1.0221 H   0  0  0  0  0  0  0  0  0  0  0  0
    2.9488    2.0973   -1.1866 H   0  0  0  0  0  0  0  0  0  0  0  0
    4.8793    0.8756   -0.2282 H   0  0  0  0  0  0  0  0  0  0  0  0
    4.5302   -1.2980    0.9083 H   0  0  0  0  0  0  0  0  0  0  0  0
    2.2695   -2.2501    1.1048 H   0  0  0  0  0  0  0  0  0  0  0  0
  1  2  1  0
  2  3  2  0
  3  4  1  0
  4  5  2  0
  5  6  1  0
  6  7  2  0
  7  8  1  0
  8  9  2  0
  8 10  1  0
 10 11  2  0
 11 12  1  0
 12 13  2  0
 13 14  1  0
 14 15  2  0
  7  2  1  0
 15 10  1  0
  1 16  1  0
  3 17  1  0
  4 18  1  0
  5 19  1  0
  6 20  1  0
 11 21  1  0
 12 22  1  0
 13 23  1  0
 14 24  1  0
 15 25  1  0
M  END
