
     RDKit          3D

 15 15  0  0  0  0  0  0  0  0999 V2000
   -2.9933    0.0140    0.6741 O   0  0  0  0  0  0  0  0  0  0  0  0
   -2.1065   -0.3974   -0.3180 C   0  0  0  0  0  0  0  0  0  0  0  0
   -2.5554   -1.0142   -1.3202 O   0  0  0  0  0  0  0  0  0  0  0  0
   -0.6515   -0.1688   -0.1900 C   0  0  0  0  0  0  0  0  0  0  0  0
    0.2309   -1.2166   -0.5069 C   0  0  0  0  0  0  0  0  0  0  0  0
    1.6116   -1.0442   -0.3816 C   0  0  0  0  0  0  0  0  0  0  0  0
    2.1274    0.1781    0.0505 C   0  0  0  0  0  0  0  0  0  0  0  0
    1.2645    1.2348    0.3479 C   0  0  0  0  0  0  0  0  0  0  0  0
   -0.1219    1.0743    0.2264 C   0  0  0  0  0  0  0  0  0  0  0  0
   -1.1435    2.4795    0.5152 Cl  0  0  0  0  0  0  0  0  0  0  0  0
   -2.6673    0.3998    1.5517 H   0  0  0  0  0  0  0  0  0  0  0  0
   -0.1510   -2.1755   -0.8361 H   0  0  0  0  0  0  0  0  0  0  0  0
    2.2821   -1.8601   -0.6187 H   0  0  0  0  0  0  0  0  0  0  0  0
    3.1975    0.3104    0.1450 H   0  0  0  0  0  0  0  0  0  0  0  0
    1.6764    2.1860    0.6607 H   0  0  0  0  0  0  0  0  0  0  0  0
  1  2  1  0
  2  3  2  0
  2  4  1  0
  4  5  2  0
  5  6  1  0
  6  7  2  0
  7  8  1  0
  8  9  2  0
  9 10  1  0
  9  4  1  0
  1 11  1  0
  5 12  1  0
  6 13  1  0
  7 14  1  0
  8 15  1  0
M  END
