
     RDKit          3D

 18 18  0  0  0  0  0  0  0  0999 V2000
    2.7379   -0.3820    0.0418 C   0  0  0  0  0  0  0  0  0  0  0  0
    1.2949    0.0240    0.1015 C   0  0  0  0  0  0  0  0  0  0  0  0
    0.3090   -0.7848   -0.4822 C   0  0  0  0  0  0  0  0  0  0  0  0
   -1.0517   -0.4403   -0.3915 C   0  0  0  0  0  0  0  0  0  0  0  0
   -1.4176    0.7504    0.2784 C   0  0  0  0  0  0  0  0  0  0  0  0
   -2.7385    1.1984    0.3293 O   0  0  0  0  0  0  0  0  0  0  0  0
   -0.4316    1.5330    0.8894 C   0  0  0  0  0  0  0  0  0  0  0  0
    0.9141    1.1716    0.8084 C   0  0  0  0  0  0  0  0  0  0  0  0
   -2.0412   -1.3185   -0.9506 N   0  0  0  0  0  4  0  0  0  0  0  0
   -3.1728   -1.6298   -0.2327 O   0  0  0  0  0  1  0  0  0  0  0  0
   -1.7880   -1.9677   -1.9865 O   0  0  0  0  0  0  0  0  0  0  0  0
    2.9722   -1.0402    0.9043 H   0  0  0  0  0  0  0  0  0  0  0  0
    3.3985    0.5105    0.0769 H   0  0  0  0  0  0  0  0  0  0  0  0
    2.9516   -0.9296   -0.9008 H   0  0  0  0  0  0  0  0  0  0  0  0
    0.5990   -1.6980   -0.9882 H   0  0  0  0  0  0  0  0  0  0  0  0
   -3.4858    0.7733   -0.2029 H   0  0  0  0  0  0  0  0  0  0  0  0
   -0.7098    2.4372    1.4161 H   0  0  0  0  0  0  0  0  0  0  0  0
    1.6600    1.7925    1.2894 H   0  0  0  0  0  0  0  0  0  0  0  0
  1  2  1  0
  2  3  2  0
  3  4  1  0
  4  5  2  0
  5  6  1  0
  5  7  1  0
  7  8  2  0
  4  9  1  0
  9 10  1  0
  9 11  2  0
  8  2  1  0
  1 12  1  0
  1 13  1  0
  1 14  1  0
  3 15  1  0
  6 16  1  0
  7 17  1  0
  8 18  1  0
M  CHG  2   9   1  10  -1
M  END
