
     RDKit          3D

 16 17  0  0  0  0  0  0  0  0999 V2000
    1.5885    1.1186    0.1544 N   0  0  0  0  0  0  0  0  0  0  0  0
    2.3865    0.0388   -0.0125 C   0  0  0  0  0  0  0  0  0  0  0  0
    1.6280   -1.1160   -0.1786 C   0  0  0  0  0  0  0  0  0  0  0  0
    0.3170   -0.6985   -0.1064 C   0  0  0  0  0  0  0  0  0  0  0  0
    0.3290    0.6565    0.0952 C   0  0  0  0  0  0  0  0  0  0  0  0
   -0.8506    1.3903    0.2134 C   0  0  0  0  0  0  0  0  0  0  0  0
   -2.0695    0.6931    0.1190 C   0  0  0  0  0  0  0  0  0  0  0  0
   -2.0804   -0.7047   -0.0889 C   0  0  0  0  0  0  0  0  0  0  0  0
   -0.8725   -1.4175   -0.2043 C   0  0  0  0  0  0  0  0  0  0  0  0
    1.8935    2.1068    0.2991 H   0  0  0  0  0  0  0  0  0  0  0  0
    3.4676    0.0827   -0.0143 H   0  0  0  0  0  0  0  0  0  0  0  0
    1.9914   -2.1235   -0.3314 H   0  0  0  0  0  0  0  0  0  0  0  0
   -0.8312    2.4607    0.3726 H   0  0  0  0  0  0  0  0  0  0  0  0
   -3.0044    1.2312    0.2063 H   0  0  0  0  0  0  0  0  0  0  0  0
   -3.0235   -1.2305   -0.1600 H   0  0  0  0  0  0  0  0  0  0  0  0
   -0.8695   -2.4881   -0.3638 H   0  0  0  0  0  0  0  0  0  0  0  0
  1  2  1  0
  2  3  2  0
  3  4  1  0
  4  5  2  0
  5  6  1  0
  6  7  2  0
  7  8  1  0
  8  9  2  0
  5  1  1  0
  9  4  1  0
  1 10  1  0
  2 11  1  0
  3 12  1  0
  6 13  1  0
  7 14  1  0
  8 15  1  0
  9 16  1  0
M  END
