
     RDKit          3D

 19 19  0  0  0  0  0  0  0  0999 V2000
    2.7469    1.0958   -0.2839 C   0  0  0  0  0  0  0  0  0  0  0  0
    2.1422   -0.2754   -0.2290 C   0  0  0  0  0  0  0  0  0  0  0  0
    2.9108   -1.2716   -0.3173 O   0  0  0  0  0  0  0  0  0  0  0  0
    0.6765   -0.4852   -0.0750 C   0  0  0  0  0  0  0  0  0  0  0  0
    0.1558   -1.7912   -0.0286 C   0  0  0  0  0  0  0  0  0  0  0  0
   -1.2158   -2.0044    0.1154 C   0  0  0  0  0  0  0  0  0  0  0  0
   -2.0895   -0.9215    0.2153 C   0  0  0  0  0  0  0  0  0  0  0  0
   -1.5997    0.3938    0.1723 C   0  0  0  0  0  0  0  0  0  0  0  0
   -0.2145    0.6030    0.0268 C   0  0  0  0  0  0  0  0  0  0  0  0
   -2.5049    1.5089    0.2758 N   0  0  0  0  0  4  0  0  0  0  0  0
   -3.8578    1.3002    0.4179 O   0  0  0  0  0  1  0  0  0  0  0  0
   -2.0789    2.6820    0.2386 O   0  0  0  0  0  0  0  0  0  0  0  0
    2.3348    1.6555   -1.1495 H   0  0  0  0  0  0  0  0  0  0  0  0
    3.8497    1.0311   -0.4013 H   0  0  0  0  0  0  0  0  0  0  0  0
    2.5263    1.6432    0.6563 H   0  0  0  0  0  0  0  0  0  0  0  0
    0.8087   -2.6519   -0.1037 H   0  0  0  0  0  0  0  0  0  0  0  0
   -1.6036   -3.0145    0.1497 H   0  0  0  0  0  0  0  0  0  0  0  0
   -3.1487   -1.1140    0.3264 H   0  0  0  0  0  0  0  0  0  0  0  0
    0.1618    1.6161   -0.0062 H   0  0  0  0  0  0  0  0  0  0  0  0
  1  2  1  0
  2  3  2  0
  2  4  1  0
  4  5  2  0
  5  6  1  0
  6  7  2  0
  7  8  1  0
  8  9  2  0
  8 10  1  0
 10 11  1  0
 10 12  2  0
  9  4  1  0
  1 13  1  0
  1 14  1  0
  1 15  1  0
  5 16  1  0
  6 17  1  0
  7 18  1  0
  9 19  1  0
M  CHG  2  10   1  11  -1
M  END
