
     RDKit          3D

 26 26  0  0  0  0  0  0  0  0999 V2000
   -4.4344   -0.0740    0.8337 C   0  0  0  0  0  0  0  0  0  0  0  0
   -2.9735   -0.4234    0.5658 C   0  0  0  0  0  0  0  0  0  0  0  0
   -2.4393    0.3325   -0.6576 C   0  0  0  0  0  0  0  0  0  0  0  0
   -0.9826   -0.0261   -0.9506 C   0  0  0  0  0  0  0  0  0  0  0  0
   -0.1486    0.4059    0.1224 O   0  0  0  0  0  0  0  0  0  0  0  0
    1.2419    0.2290    0.1670 C   0  0  0  0  0  0  0  0  0  0  0  0
    1.9360    0.6965    1.2899 C   0  0  0  0  0  0  0  0  0  0  0  0
    3.3227    0.5435    1.3817 C   0  0  0  0  0  0  0  0  0  0  0  0
    4.0312   -0.0810    0.3468 C   0  0  0  0  0  0  0  0  0  0  0  0
    5.4129   -0.2396    0.4261 O   0  0  0  0  0  0  0  0  0  0  0  0
    3.3453   -0.5503   -0.7777 C   0  0  0  0  0  0  0  0  0  0  0  0
    1.9581   -0.3983   -0.8715 C   0  0  0  0  0  0  0  0  0  0  0  0
   -5.0639   -0.3518   -0.0385 H   0  0  0  0  0  0  0  0  0  0  0  0
   -4.7934   -0.6334    1.7231 H   0  0  0  0  0  0  0  0  0  0  0  0
   -4.5407    1.0140    1.0315 H   0  0  0  0  0  0  0  0  0  0  0  0
   -2.3730   -0.1614    1.4640 H   0  0  0  0  0  0  0  0  0  0  0  0
   -2.8916   -1.5191    0.3951 H   0  0  0  0  0  0  0  0  0  0  0  0
   -2.5170    1.4288   -0.4872 H   0  0  0  0  0  0  0  0  0  0  0  0
   -3.0540    0.0747   -1.5478 H   0  0  0  0  0  0  0  0  0  0  0  0
   -0.8873   -1.1255   -1.0878 H   0  0  0  0  0  0  0  0  0  0  0  0
   -0.6713    0.4831   -1.8884 H   0  0  0  0  0  0  0  0  0  0  0  0
    1.3973    1.1802    2.0949 H   0  0  0  0  0  0  0  0  0  0  0  0
    3.8447    0.9102    2.2564 H   0  0  0  0  0  0  0  0  0  0  0  0
    5.9383    0.0896    1.2276 H   0  0  0  0  0  0  0  0  0  0  0  0
    3.8880   -1.0335   -1.5803 H   0  0  0  0  0  0  0  0  0  0  0  0
    1.4541   -0.7704   -1.7528 H   0  0  0  0  0  0  0  0  0  0  0  0
  1  2  1  0
  2  3  1  0
  3  4  1  0
  4  5  1  0
  5  6  1  0
  6  7  2  0
  7  8  1  0
  8  9  2  0
  9 10  1  0
  9 11  1  0
 11 12  2  0
 12  6  1  0
  1 13  1  0
  1 14  1  0
  1 15  1  0
  2 16  1  0
  2 17  1  0
  3 18  1  0
  3 19  1  0
  4 20  1  0
  4 21  1  0
  7 22  1  0
  8 23  1  0
 10 24  1  0
 11 25  1  0
 12 26  1  0
M  END
