
     RDKit          3D

 18 18  0  0  0  0  0  0  0  0999 V2000
   -3.2779   -0.3320   -0.0659 C   0  0  0  0  0  0  0  0  0  0  0  0
   -2.2444    0.2055    0.7528 O   0  0  0  0  0  0  0  0  0  0  0  0
   -0.8784    0.1576    0.4370 C   0  0  0  0  0  0  0  0  0  0  0  0
   -0.3964   -0.4392   -0.7435 C   0  0  0  0  0  0  0  0  0  0  0  0
    0.9756   -0.4615   -1.0134 C   0  0  0  0  0  0  0  0  0  0  0  0
    1.8866    0.1110   -0.1098 C   0  0  0  0  0  0  0  0  0  0  0  0
    3.3366    0.0971   -0.3770 C   0  0  0  0  0  0  0  0  0  0  0  0
    3.8004   -0.4288   -1.4236 O   0  0  0  0  0  0  0  0  0  0  0  0
    1.4038    0.7049    1.0655 C   0  0  0  0  0  0  0  0  0  0  0  0
    0.0322    0.7267    1.3343 C   0  0  0  0  0  0  0  0  0  0  0  0
   -3.1356   -1.4262   -0.1912 H   0  0  0  0  0  0  0  0  0  0  0  0
   -3.2798    0.1694   -1.0568 H   0  0  0  0  0  0  0  0  0  0  0  0
   -4.2573   -0.1549    0.4237 H   0  0  0  0  0  0  0  0  0  0  0  0
   -1.0724   -0.8880   -1.4583 H   0  0  0  0  0  0  0  0  0  0  0  0
    1.3224   -0.9263   -1.9280 H   0  0  0  0  0  0  0  0  0  0  0  0
    4.0219    0.5437    0.3323 H   0  0  0  0  0  0  0  0  0  0  0  0
    2.0883    1.1522    1.7761 H   0  0  0  0  0  0  0  0  0  0  0  0
   -0.3257    1.1888    2.2458 H   0  0  0  0  0  0  0  0  0  0  0  0
  1  2  1  0
  2  3  1  0
  3  4  2  0
  4  5  1  0
  5  6  2  0
  6  7  1  0
  7  8  2  0
  6  9  1  0
  9 10  2  0
 10  3  1  0
  1 11  1  0
  1 12  1  0
  1 13  1  0
  4 14  1  0
  5 15  1  0
  7 16  1  0
  9 17  1  0
 10 18  1  0
M  END
