
     RDKit          3D

 18 17  0  0  0  0  0  0  0  0999 V2000
   -3.0974   -0.2396    0.3635 C   0  0  0  0  0  0  0  0  0  0  0  0
   -1.7448    0.3679    0.0038 C   0  0  0  0  0  0  0  0  0  0  0  0
   -0.6848   -0.7195   -0.1911 C   0  0  0  0  0  0  0  0  0  0  0  0
    0.6352   -0.1073   -0.5370 C   0  0  0  0  0  0  0  0  0  0  0  0
    0.9232    0.1068   -1.7460 O   0  0  0  0  0  0  0  0  0  0  0  0
    1.4859    0.3124    0.4951 O   0  0  0  0  0  0  0  0  0  0  0  0
    2.8330    0.6759    0.3458 C   0  0  0  0  0  0  0  0  0  0  0  0
    3.6247    0.1792   -0.6049 C   0  0  0  0  0  0  0  0  0  0  0  0
   -3.4462   -0.9129   -0.4483 H   0  0  0  0  0  0  0  0  0  0  0  0
   -3.0223   -0.8150    1.3109 H   0  0  0  0  0  0  0  0  0  0  0  0
   -3.8447    0.5706    0.4985 H   0  0  0  0  0  0  0  0  0  0  0  0
   -1.4309    1.0558    0.8195 H   0  0  0  0  0  0  0  0  0  0  0  0
   -1.8530    0.9582   -0.9326 H   0  0  0  0  0  0  0  0  0  0  0  0
   -0.9964   -1.4112   -1.0044 H   0  0  0  0  0  0  0  0  0  0  0  0
   -0.5747   -1.3107    0.7438 H   0  0  0  0  0  0  0  0  0  0  0  0
    3.2586    1.3627    1.0658 H   0  0  0  0  0  0  0  0  0  0  0  0
    3.2745   -0.5628   -1.3085 H   0  0  0  0  0  0  0  0  0  0  0  0
    4.6601    0.4894   -0.6583 H   0  0  0  0  0  0  0  0  0  0  0  0
  1  2  1  0
  2  3  1  0
  3  4  1  0
  4  5  2  0
  4  6  1  0
  6  7  1  0
  7  8  2  3
  1  9  1  0
  1 10  1  0
  1 11  1  0
  2 12  1  0
  2 13  1  0
  3 14  1  0
  3 15  1  0
  7 16  1  0
  8 17  1  0
  8 18  1  0
M  END
