
     RDKit          3D

 18 17  0  0  0  0  0  0  0  0999 V2000
   -1.5287   -0.9779    0.2158 C   0  0  0  0  0  0  0  0  0  0  0  0
   -0.7572    0.0149   -0.6648 C   0  0  0  0  0  0  0  0  0  0  0  0
   -0.8669    1.4403   -0.1085 C   0  0  0  0  0  0  0  0  0  0  0  0
    0.7070   -0.4243   -0.9142 C   0  0  0  0  0  0  0  0  0  0  0  0
    1.6040   -0.4910    0.3348 C   0  0  0  0  0  0  0  0  0  0  0  0
    1.9128    0.7908    0.8112 O   0  0  0  0  0  0  0  0  0  0  0  0
   -2.6112   -0.7280    0.2044 H   0  0  0  0  0  0  0  0  0  0  0  0
   -1.1778   -0.9411    1.2682 H   0  0  0  0  0  0  0  0  0  0  0  0
   -1.4097   -2.0121   -0.1715 H   0  0  0  0  0  0  0  0  0  0  0  0
   -1.2565    0.0181   -1.6595 H   0  0  0  0  0  0  0  0  0  0  0  0
   -1.9243    1.7790   -0.1480 H   0  0  0  0  0  0  0  0  0  0  0  0
   -0.5306    1.4848    0.9484 H   0  0  0  0  0  0  0  0  0  0  0  0
   -0.2568    2.1411   -0.7172 H   0  0  0  0  0  0  0  0  0  0  0  0
    1.1718    0.2599   -1.6575 H   0  0  0  0  0  0  0  0  0  0  0  0
    0.6941   -1.4323   -1.3836 H   0  0  0  0  0  0  0  0  0  0  0  0
    2.5443   -1.0299    0.0780 H   0  0  0  0  0  0  0  0  0  0  0  0
    1.1151   -1.0722    1.1419 H   0  0  0  0  0  0  0  0  0  0  0  0
    2.5706    1.1799    0.1775 H   0  0  0  0  0  0  0  0  0  0  0  0
  1  2  1  0
  2  3  1  0
  2  4  1  0
  4  5  1  0
  5  6  1  0
  1  7  1  0
  1  8  1  0
  1  9  1  0
  2 10  1  0
  3 11  1  0
  3 12  1  0
  3 13  1  0
  4 14  1  0
  4 15  1  0
  5 16  1  0
  5 17  1  0
  6 18  1  0
M  END
