
     RDKit          3D

 20 19  0  0  0  0  0  0  0  0999 V2000
    2.3926    1.1475   -0.0687 C   0  0  0  0  0  0  0  0  0  0  0  0
    1.8215   -0.1232   -0.6972 C   0  0  0  0  0  0  0  0  0  0  0  0
    1.2914   -1.1188    0.3480 C   0  0  0  0  0  0  0  0  0  0  0  0
    0.0345   -0.6290    1.0729 C   0  0  0  0  0  0  0  0  0  0  0  0
   -1.0109   -0.3841    0.1365 O   0  0  0  0  0  0  0  0  0  0  0  0
   -2.2730    0.0774    0.5194 C   0  0  0  0  0  0  0  0  0  0  0  0
   -3.3208    0.2970   -0.5181 C   0  0  0  0  0  0  0  0  0  0  0  0
   -2.5473    0.2707    1.7350 O   0  0  0  0  0  0  0  0  0  0  0  0
    2.8740    1.7642   -0.8567 H   0  0  0  0  0  0  0  0  0  0  0  0
    3.1564    0.8939    0.6969 H   0  0  0  0  0  0  0  0  0  0  0  0
    1.5869    1.7519    0.3969 H   0  0  0  0  0  0  0  0  0  0  0  0
    1.0193    0.1460   -1.4176 H   0  0  0  0  0  0  0  0  0  0  0  0
    2.6321   -0.6207   -1.2726 H   0  0  0  0  0  0  0  0  0  0  0  0
    1.0506   -2.0749   -0.1656 H   0  0  0  0  0  0  0  0  0  0  0  0
    2.0852   -1.3350    1.0959 H   0  0  0  0  0  0  0  0  0  0  0  0
    0.2548    0.2949    1.6486 H   0  0  0  0  0  0  0  0  0  0  0  0
   -0.2919   -1.4130    1.7904 H   0  0  0  0  0  0  0  0  0  0  0  0
   -3.9386    1.1814   -0.2549 H   0  0  0  0  0  0  0  0  0  0  0  0
   -3.9715   -0.5996   -0.5820 H   0  0  0  0  0  0  0  0  0  0  0  0
   -2.8452    0.4733   -1.5057 H   0  0  0  0  0  0  0  0  0  0  0  0
  1  2  1  0
  2  3  1  0
  3  4  1  0
  4  5  1  0
  5  6  1  0
  6  7  1  0
  6  8  2  0
  1  9  1  0
  1 10  1  0
  1 11  1  0
  2 12  1  0
  2 13  1  0
  3 14  1  0
  3 15  1  0
  4 16  1  0
  4 17  1  0
  7 18  1  0
  7 19  1  0
  7 20  1  0
M  END
