
     RDKit          3D

 24 23  0  0  0  0  0  0  0  0999 V2000
   -3.2587    0.1295   -0.8661 C   0  0  0  0  0  0  0  0  0  0  0  0
   -2.7219   -0.6737    0.3182 C   0  0  0  0  0  0  0  0  0  0  0  0
   -1.1929   -0.8219    0.2901 C   0  0  0  0  0  0  0  0  0  0  0  0
   -0.4672    0.5091    0.5545 C   0  0  0  0  0  0  0  0  0  0  0  0
    1.0407    0.3245    0.7878 C   0  0  0  0  0  0  0  0  0  0  0  0
    1.7903   -0.0890   -0.4911 C   0  0  0  0  0  0  0  0  0  0  0  0
    3.3054   -0.1762   -0.2697 C   0  0  0  0  0  0  0  0  0  0  0  0
    3.9004    1.1537   -0.0826 C   0  0  0  0  0  0  0  0  0  0  0  0
    4.3690    2.2014    0.0651 N   0  0  0  0  0  0  0  0  0  0  0  0
   -2.9073   -0.3086   -1.8244 H   0  0  0  0  0  0  0  0  0  0  0  0
   -2.9335    1.1886   -0.8018 H   0  0  0  0  0  0  0  0  0  0  0  0
   -4.3688    0.1075   -0.8539 H   0  0  0  0  0  0  0  0  0  0  0  0
   -3.0432   -0.1955    1.2689 H   0  0  0  0  0  0  0  0  0  0  0  0
   -3.1737   -1.6888    0.2843 H   0  0  0  0  0  0  0  0  0  0  0  0
   -0.8843   -1.2395   -0.6920 H   0  0  0  0  0  0  0  0  0  0  0  0
   -0.9060   -1.5543    1.0760 H   0  0  0  0  0  0  0  0  0  0  0  0
   -0.6243    1.2071   -0.2956 H   0  0  0  0  0  0  0  0  0  0  0  0
   -0.8980    0.9813    1.4645 H   0  0  0  0  0  0  0  0  0  0  0  0
    1.4481    1.2925    1.1521 H   0  0  0  0  0  0  0  0  0  0  0  0
    1.2088   -0.4313    1.5861 H   0  0  0  0  0  0  0  0  0  0  0  0
    1.4379   -1.0913   -0.8140 H   0  0  0  0  0  0  0  0  0  0  0  0
    1.5727    0.6298   -1.3122 H   0  0  0  0  0  0  0  0  0  0  0  0
    3.5307   -0.8090    0.6151 H   0  0  0  0  0  0  0  0  0  0  0  0
    3.7758   -0.6459   -1.1593 H   0  0  0  0  0  0  0  0  0  0  0  0
  1  2  1  0
  2  3  1  0
  3  4  1  0
  4  5  1  0
  5  6  1  0
  6  7  1  0
  7  8  1  0
  8  9  3  0
  1 10  1  0
  1 11  1  0
  1 12  1  0
  2 13  1  0
  2 14  1  0
  3 15  1  0
  3 16  1  0
  4 17  1  0
  4 18  1  0
  5 19  1  0
  5 20  1  0
  6 21  1  0
  6 22  1  0
  7 23  1  0
  7 24  1  0
M  END
