
     RDKit          3D

 12 11  0  0  0  0  0  0  0  0999 V2000
   -1.2444   -1.0640    0.0111 C   0  0  0  0  0  0  0  0  0  0  0  0
   -0.0279   -0.1896   -0.0038 C   0  0  0  0  0  0  0  0  0  0  0  0
   -0.1576    1.3083    0.0370 C   0  0  0  0  0  0  0  0  0  0  0  0
    1.1408   -0.7515   -0.0527 N   0  0  0  0  0  0  0  0  0  0  0  0
    2.3032   -0.0141   -0.0694 O   0  0  0  0  0  0  0  0  0  0  0  0
   -1.2119   -1.7306    0.8985 H   0  0  0  0  0  0  0  0  0  0  0  0
   -2.1784   -0.4658    0.0539 H   0  0  0  0  0  0  0  0  0  0  0  0
   -1.2661   -1.6861   -0.9083 H   0  0  0  0  0  0  0  0  0  0  0  0
    0.3047    1.7479   -0.8717 H   0  0  0  0  0  0  0  0  0  0  0  0
   -1.2208    1.6248    0.0766 H   0  0  0  0  0  0  0  0  0  0  0  0
    0.3589    1.7034    0.9368 H   0  0  0  0  0  0  0  0  0  0  0  0
    3.1993   -0.4828   -0.1079 H   0  0  0  0  0  0  0  0  0  0  0  0
  1  2  1  0
  2  3  1  0
  2  4  2  3
  4  5  1  0
  1  6  1  0
  1  7  1  0
  1  8  1  0
  3  9  1  0
  3 10  1  0
  3 11  1  0
  5 12  1  0
M  END
