
     RDKit          3D

 35 34  0  0  0  0  0  0  0  0999 V2000
    4.5360    1.8146    0.1864 C   0  0  0  0  0  0  0  0  0  0  0  0
    3.6247    0.6491   -0.1870 C   0  0  0  0  0  0  0  0  0  0  0  0
    2.2604    0.7701    0.5014 C   0  0  0  0  0  0  0  0  0  0  0  0
    1.3447   -0.4030    0.1189 C   0  0  0  0  0  0  0  0  0  0  0  0
   -0.0199   -0.3315    0.8341 C   0  0  0  0  0  0  0  0  0  0  0  0
   -0.8167    0.8659    0.3963 C   0  0  0  0  0  0  0  0  0  0  0  0
   -1.2866    1.6544    1.2618 O   0  0  0  0  0  0  0  0  0  0  0  0
   -1.0462    1.0876   -0.9654 O   0  0  0  0  0  0  0  0  0  0  0  0
   -1.7875    2.2027   -1.4476 C   0  0  0  0  0  0  0  0  0  0  0  0
   -1.8466    2.1552   -2.9657 C   0  0  0  0  0  0  0  0  0  0  0  0
   -0.8188   -1.5782    0.5818 C   0  0  0  0  0  0  0  0  0  0  0  0
   -1.0473   -1.9561   -0.6010 O   0  0  0  0  0  0  0  0  0  0  0  0
   -1.3181   -2.3031    1.6700 O   0  0  0  0  0  0  0  0  0  0  0  0
   -2.1475   -3.4549    1.5315 C   0  0  0  0  0  0  0  0  0  0  0  0
   -3.5673   -3.0521    1.1501 C   0  0  0  0  0  0  0  0  0  0  0  0
    4.7088    1.8331    1.2836 H   0  0  0  0  0  0  0  0  0  0  0  0
    5.5147    1.6999   -0.3253 H   0  0  0  0  0  0  0  0  0  0  0  0
    4.0805    2.7773   -0.1298 H   0  0  0  0  0  0  0  0  0  0  0  0
    3.4880    0.6390   -1.2905 H   0  0  0  0  0  0  0  0  0  0  0  0
    4.1150   -0.3017    0.1160 H   0  0  0  0  0  0  0  0  0  0  0  0
    1.7847    1.7285    0.1985 H   0  0  0  0  0  0  0  0  0  0  0  0
    2.4048    0.7801    1.6043 H   0  0  0  0  0  0  0  0  0  0  0  0
    1.1975   -0.4147   -0.9842 H   0  0  0  0  0  0  0  0  0  0  0  0
    1.8485   -1.3535    0.4043 H   0  0  0  0  0  0  0  0  0  0  0  0
    0.1665   -0.2607    1.9294 H   0  0  0  0  0  0  0  0  0  0  0  0
   -1.2951    3.1469   -1.1285 H   0  0  0  0  0  0  0  0  0  0  0  0
   -2.8206    2.1721   -1.0382 H   0  0  0  0  0  0  0  0  0  0  0  0
   -2.3432    1.2185   -3.2967 H   0  0  0  0  0  0  0  0  0  0  0  0
   -2.4240    3.0240   -3.3461 H   0  0  0  0  0  0  0  0  0  0  0  0
   -0.8193    2.1918   -3.3864 H   0  0  0  0  0  0  0  0  0  0  0  0
   -2.1776   -3.9879    2.5051 H   0  0  0  0  0  0  0  0  0  0  0  0
   -1.7250   -4.1480    0.7718 H   0  0  0  0  0  0  0  0  0  0  0  0
   -4.2113   -3.9553    1.1014 H   0  0  0  0  0  0  0  0  0  0  0  0
   -3.5760   -2.5545    0.1579 H   0  0  0  0  0  0  0  0  0  0  0  0
   -3.9804   -2.3557    1.9102 H   0  0  0  0  0  0  0  0  0  0  0  0
  1  2  1  0
  2  3  1  0
  3  4  1  0
  4  5  1  0
  5  6  1  0
  6  7  2  0
  6  8  1  0
  8  9  1  0
  9 10  1  0
  5 11  1  0
 11 12  2  0
 11 13  1  0
 13 14  1  0
 14 15  1  0
  1 16  1  0
  1 17  1  0
  1 18  1  0
  2 19  1  0
  2 20  1  0
  3 21  1  0
  3 22  1  0
  4 23  1  0
  4 24  1  0
  5 25  1  0
  9 26  1  0
  9 27  1  0
 10 28  1  0
 10 29  1  0
 10 30  1  0
 14 31  1  0
 14 32  1  0
 15 33  1  0
 15 34  1  0
 15 35  1  0
M  END
