
     RDKit          3D

 23 23  0  0  0  0  0  0  0  0999 V2000
    2.2140    0.4152    3.0246 C   0  0  0  0  0  0  0  0  0  0  0  0
    1.8610    0.9575    1.7561 O   0  0  0  0  0  0  0  0  0  0  0  0
    0.8881    0.4171    0.8994 C   0  0  0  0  0  0  0  0  0  0  0  0
    0.6378    1.0554   -0.3292 C   0  0  0  0  0  0  0  0  0  0  0  0
    1.3425    2.2047   -0.6915 O   0  0  0  0  0  0  0  0  0  0  0  0
   -0.3255    0.5466   -1.2116 C   0  0  0  0  0  0  0  0  0  0  0  0
   -1.0444   -0.6110   -0.8613 C   0  0  0  0  0  0  0  0  0  0  0  0
   -0.8056   -1.2569    0.3588 C   0  0  0  0  0  0  0  0  0  0  0  0
    0.1608   -0.7402    1.2359 C   0  0  0  0  0  0  0  0  0  0  0  0
   -1.5739   -2.4693    0.7011 C   0  0  0  0  0  0  0  0  0  0  0  0
   -1.3848   -3.0750    1.7894 O   0  0  0  0  0  0  0  0  0  0  0  0
   -0.5390    1.2191   -2.4256 O   0  0  0  0  0  0  0  0  0  0  0  0
   -1.4812    0.8193   -3.4155 C   0  0  0  0  0  0  0  0  0  0  0  0
    2.6050   -0.6170    2.9033 H   0  0  0  0  0  0  0  0  0  0  0  0
    3.0070    1.0437    3.4791 H   0  0  0  0  0  0  0  0  0  0  0  0
    1.3316    0.4145    3.6987 H   0  0  0  0  0  0  0  0  0  0  0  0
    2.0494    2.6175   -0.0950 H   0  0  0  0  0  0  0  0  0  0  0  0
   -1.7908   -1.0145   -1.5329 H   0  0  0  0  0  0  0  0  0  0  0  0
    0.3430   -1.2410    2.1770 H   0  0  0  0  0  0  0  0  0  0  0  0
   -2.3153   -2.8529    0.0117 H   0  0  0  0  0  0  0  0  0  0  0  0
   -1.2350   -0.1972   -3.7888 H   0  0  0  0  0  0  0  0  0  0  0  0
   -2.5083    0.8343   -2.9935 H   0  0  0  0  0  0  0  0  0  0  0  0
   -1.4367    1.5300   -4.2660 H   0  0  0  0  0  0  0  0  0  0  0  0
  1  2  1  0
  2  3  1  0
  3  4  2  0
  4  5  1  0
  4  6  1  0
  6  7  2  0
  7  8  1  0
  8  9  2  0
  8 10  1  0
 10 11  2  0
  6 12  1  0
 12 13  1  0
  9  3  1  0
  1 14  1  0
  1 15  1  0
  1 16  1  0
  5 17  1  0
  7 18  1  0
  9 19  1  0
 10 20  1  0
 13 21  1  0
 13 22  1  0
 13 23  1  0
M  END
