
     RDKit          3D

 18 18  0  0  0  0  0  0  0  0999 V2000
    2.7242   -0.8272    0.1670 C   0  0  0  0  0  0  0  0  0  0  0  0
    1.7391    0.1984    0.0933 O   0  0  0  0  0  0  0  0  0  0  0  0
    0.3564   -0.0106    0.2334 C   0  0  0  0  0  0  0  0  0  0  0  0
   -0.1768   -1.2952    0.4652 C   0  0  0  0  0  0  0  0  0  0  0  0
   -1.5545   -1.4763    0.6007 C   0  0  0  0  0  0  0  0  0  0  0  0
   -2.4164   -0.3845    0.5075 C   0  0  0  0  0  0  0  0  0  0  0  0
   -1.9045    0.8938    0.2783 C   0  0  0  0  0  0  0  0  0  0  0  0
   -0.5185    1.0939    0.1393 C   0  0  0  0  0  0  0  0  0  0  0  0
    0.0155    2.4514   -0.1033 C   0  0  0  0  0  0  0  0  0  0  0  0
   -0.7528    3.4463   -0.1895 O   0  0  0  0  0  0  0  0  0  0  0  0
    2.5531   -1.5793   -0.6319 H   0  0  0  0  0  0  0  0  0  0  0  0
    2.6949   -1.3140    1.1647 H   0  0  0  0  0  0  0  0  0  0  0  0
    3.7273   -0.3769    0.0213 H   0  0  0  0  0  0  0  0  0  0  0  0
    0.4655   -2.1616    0.5424 H   0  0  0  0  0  0  0  0  0  0  0  0
   -1.9548   -2.4661    0.7785 H   0  0  0  0  0  0  0  0  0  0  0  0
   -3.4840   -0.5286    0.6131 H   0  0  0  0  0  0  0  0  0  0  0  0
   -2.5941    1.7260    0.2099 H   0  0  0  0  0  0  0  0  0  0  0  0
    1.0803    2.6105   -0.2109 H   0  0  0  0  0  0  0  0  0  0  0  0
  1  2  1  0
  2  3  1  0
  3  4  2  0
  4  5  1  0
  5  6  2  0
  6  7  1  0
  7  8  2  0
  8  9  1  0
  9 10  2  0
  8  3  1  0
  1 11  1  0
  1 12  1  0
  1 13  1  0
  4 14  1  0
  5 15  1  0
  6 16  1  0
  7 17  1  0
  9 18  1  0
M  END
