
     RDKit          3D

 24 24  0  0  0  0  0  0  0  0999 V2000
    2.6311    0.1559    1.4879 N   0  0  0  0  0  0  0  0  0  0  0  0
    2.3165   -0.9967    0.6446 C   0  0  0  0  0  0  0  0  0  0  0  0
    1.4528   -0.6065   -0.5680 C   0  0  0  0  0  0  0  0  0  0  0  0
    0.1913    0.0517   -0.1617 N   0  0  0  0  0  0  0  0  0  0  0  0
   -0.4368    0.7138   -1.3195 C   0  0  0  0  0  0  0  0  0  0  0  0
   -1.6495    1.5528   -0.8659 C   0  0  0  0  0  0  0  0  0  0  0  0
   -2.2054    1.1030    0.4211 N   0  0  0  0  0  0  0  0  0  0  0  0
   -2.1916   -0.3602    0.5190 C   0  0  0  0  0  0  0  0  0  0  0  0
   -0.7515   -0.9135    0.4538 C   0  0  0  0  0  0  0  0  0  0  0  0
    3.0562    0.9061    0.8957 H   0  0  0  0  0  0  0  0  0  0  0  0
    1.7454    0.5328    1.8962 H   0  0  0  0  0  0  0  0  0  0  0  0
    3.2668   -1.4406    0.2775 H   0  0  0  0  0  0  0  0  0  0  0  0
    1.8094   -1.7755    1.2522 H   0  0  0  0  0  0  0  0  0  0  0  0
    1.2495   -1.5105   -1.1853 H   0  0  0  0  0  0  0  0  0  0  0  0
    2.0615    0.0824   -1.1956 H   0  0  0  0  0  0  0  0  0  0  0  0
    0.2868    1.3932   -1.8226 H   0  0  0  0  0  0  0  0  0  0  0  0
   -0.7646   -0.0463   -2.0658 H   0  0  0  0  0  0  0  0  0  0  0  0
   -1.3466    2.6195   -0.7741 H   0  0  0  0  0  0  0  0  0  0  0  0
   -2.4427    1.5057   -1.6430 H   0  0  0  0  0  0  0  0  0  0  0  0
   -1.6221    1.4949    1.1984 H   0  0  0  0  0  0  0  0  0  0  0  0
   -2.7992   -0.7908   -0.3081 H   0  0  0  0  0  0  0  0  0  0  0  0
   -2.6718   -0.6702    1.4724 H   0  0  0  0  0  0  0  0  0  0  0  0
   -0.4194   -1.1226    1.4930 H   0  0  0  0  0  0  0  0  0  0  0  0
   -0.7663   -1.8783   -0.1021 H   0  0  0  0  0  0  0  0  0  0  0  0
  1  2  1  0
  2  3  1  0
  3  4  1  0
  4  5  1  0
  5  6  1  0
  6  7  1  0
  7  8  1  0
  8  9  1  0
  9  4  1  0
  1 10  1  0
  1 11  1  0
  2 12  1  0
  2 13  1  0
  3 14  1  0
  3 15  1  0
  5 16  1  0
  5 17  1  0
  6 18  1  0
  6 19  1  0
  7 20  1  0
  8 21  1  0
  8 22  1  0
  9 23  1  0
  9 24  1  0
M  END
