
     RDKit          3D

 21 20  0  0  0  0  0  0  0  0999 V2000
   -3.3842   -0.9518   -0.2185 C   0  0  0  0  0  0  0  0  0  0  0  0
   -1.9947   -0.3988   -0.5213 C   0  0  0  0  0  0  0  0  0  0  0  0
   -1.5781    0.6497    0.5181 C   0  0  0  0  0  0  0  0  0  0  0  0
   -0.1966    1.2287    0.2131 C   0  0  0  0  0  0  0  0  0  0  0  0
    0.7957    0.2124    0.3249 O   0  0  0  0  0  0  0  0  0  0  0  0
    2.1530    0.4550    0.0989 C   0  0  0  0  0  0  0  0  0  0  0  0
    2.5522    1.6105   -0.2160 O   0  0  0  0  0  0  0  0  0  0  0  0
    3.1055   -0.6580    0.2339 C   0  0  0  0  0  0  0  0  0  0  0  0
    4.4142   -0.5103    0.0357 C   0  0  0  0  0  0  0  0  0  0  0  0
   -3.6587   -1.7074   -0.9844 H   0  0  0  0  0  0  0  0  0  0  0  0
   -4.1374   -0.1355   -0.2391 H   0  0  0  0  0  0  0  0  0  0  0  0
   -3.3967   -1.4377    0.7804 H   0  0  0  0  0  0  0  0  0  0  0  0
   -2.0034    0.0598   -1.5342 H   0  0  0  0  0  0  0  0  0  0  0  0
   -1.2678   -1.2399   -0.5221 H   0  0  0  0  0  0  0  0  0  0  0  0
   -1.5651    0.1920    1.5316 H   0  0  0  0  0  0  0  0  0  0  0  0
   -2.3177    1.4801    0.5212 H   0  0  0  0  0  0  0  0  0  0  0  0
   -0.1844    1.6596   -0.8122 H   0  0  0  0  0  0  0  0  0  0  0  0
    0.0231    2.0395    0.9413 H   0  0  0  0  0  0  0  0  0  0  0  0
    2.7244   -1.6346    0.5051 H   0  0  0  0  0  0  0  0  0  0  0  0
    4.8413    0.4465   -0.2369 H   0  0  0  0  0  0  0  0  0  0  0  0
    5.0754   -1.3599    0.1469 H   0  0  0  0  0  0  0  0  0  0  0  0
  1  2  1  0
  2  3  1  0
  3  4  1  0
  4  5  1  0
  5  6  1  0
  6  7  2  0
  6  8  1  0
  8  9  2  3
  1 10  1  0
  1 11  1  0
  1 12  1  0
  2 13  1  0
  2 14  1  0
  3 15  1  0
  3 16  1  0
  4 17  1  0
  4 18  1  0
  8 19  1  0
  9 20  1  0
  9 21  1  0
M  END
