
     RDKit          3D

 19 18  0  0  0  0  0  0  0  0999 V2000
    2.6607    0.5993   -0.9421 C   0  0  0  0  0  0  0  0  0  0  0  0
    1.1801    0.2345   -0.8842 C   0  0  0  0  0  0  0  0  0  0  0  0
    0.8009   -0.3188    0.4974 C   0  0  0  0  0  0  0  0  0  0  0  0
   -0.6503   -0.8213    0.5559 C   0  0  0  0  0  0  0  0  0  0  0  0
   -1.6731    0.3234    0.5339 C   0  0  0  0  0  0  0  0  0  0  0  0
   -3.0686   -0.2054    0.6970 C   0  0  0  0  0  0  0  0  0  0  0  0
   -4.2279   -0.0695   -0.6155 Cl  0  0  0  0  0  0  0  0  0  0  0  0
   -3.4120   -0.7207    1.7492 O   0  0  0  0  0  0  0  0  0  0  0  0
    3.2878   -0.2996   -0.7608 H   0  0  0  0  0  0  0  0  0  0  0  0
    2.8975    1.3720   -0.1798 H   0  0  0  0  0  0  0  0  0  0  0  0
    2.9049    1.0048   -1.9466 H   0  0  0  0  0  0  0  0  0  0  0  0
    0.9679   -0.5263   -1.6666 H   0  0  0  0  0  0  0  0  0  0  0  0
    0.5867    1.1461   -1.1069 H   0  0  0  0  0  0  0  0  0  0  0  0
    0.9620    0.4599    1.2751 H   0  0  0  0  0  0  0  0  0  0  0  0
    1.4693   -1.1753    0.7356 H   0  0  0  0  0  0  0  0  0  0  0  0
   -0.7741   -1.3965    1.4999 H   0  0  0  0  0  0  0  0  0  0  0  0
   -0.8435   -1.5176   -0.2899 H   0  0  0  0  0  0  0  0  0  0  0  0
   -1.4617    1.0411    1.3559 H   0  0  0  0  0  0  0  0  0  0  0  0
   -1.6067    0.8697   -0.4299 H   0  0  0  0  0  0  0  0  0  0  0  0
  1  2  1  0
  2  3  1  0
  3  4  1  0
  4  5  1  0
  5  6  1  0
  6  7  1  0
  6  8  2  0
  1  9  1  0
  1 10  1  0
  1 11  1  0
  2 12  1  0
  2 13  1  0
  3 14  1  0
  3 15  1  0
  4 16  1  0
  4 17  1  0
  5 18  1  0
  5 19  1  0
M  END
