
     RDKit          3D

 19 19  0  0  0  0  0  0  0  0999 V2000
    3.2565   -0.1433    0.1747 C   0  0  0  0  0  0  0  0  0  0  0  0
    1.9782   -0.7436    0.3578 O   0  0  0  0  0  0  0  0  0  0  0  0
    0.7550   -0.1153    0.0729 C   0  0  0  0  0  0  0  0  0  0  0  0
    0.6925    1.1971   -0.4278 C   0  0  0  0  0  0  0  0  0  0  0  0
   -0.5395    1.7898   -0.6927 C   0  0  0  0  0  0  0  0  0  0  0  0
   -1.7204    1.0832   -0.4723 C   0  0  0  0  0  0  0  0  0  0  0  0
   -1.6897   -0.2348    0.0204 C   0  0  0  0  0  0  0  0  0  0  0  0
   -0.4324   -0.8309    0.3053 C   0  0  0  0  0  0  0  0  0  0  0  0
   -0.3143   -2.1220    0.8293 O   0  0  0  0  0  0  0  0  0  0  0  0
   -2.9690   -0.9610    0.2054 C   0  0  0  0  0  0  0  0  0  0  0  0
   -4.0723   -0.3628    0.0926 O   0  0  0  0  0  0  0  0  0  0  0  0
    3.4066    0.1168   -0.8945 H   0  0  0  0  0  0  0  0  0  0  0  0
    4.0424   -0.8647    0.4782 H   0  0  0  0  0  0  0  0  0  0  0  0
    3.3455    0.7658    0.8063 H   0  0  0  0  0  0  0  0  0  0  0  0
    1.5913    1.7692   -0.6128 H   0  0  0  0  0  0  0  0  0  0  0  0
   -0.5799    2.8012   -1.0765 H   0  0  0  0  0  0  0  0  0  0  0  0
   -2.6612    1.5691   -0.6999 H   0  0  0  0  0  0  0  0  0  0  0  0
   -1.0955   -2.6983    1.1060 H   0  0  0  0  0  0  0  0  0  0  0  0
   -2.9941   -2.0156    0.4274 H   0  0  0  0  0  0  0  0  0  0  0  0
  1  2  1  0
  2  3  1  0
  3  4  2  0
  4  5  1  0
  5  6  2  0
  6  7  1  0
  7  8  2  0
  8  9  1  0
  7 10  1  0
 10 11  2  0
  8  3  1  0
  1 12  1  0
  1 13  1  0
  1 14  1  0
  4 15  1  0
  5 16  1  0
  6 17  1  0
  9 18  1  0
 10 19  1  0
M  END
