
     RDKit          3D

 26 25  0  0  0  0  0  0  0  0999 V2000
   -2.9791   -1.2303    0.1205 C   0  0  0  0  0  0  0  0  0  0  0  0
   -2.6727    0.2509    0.3404 C   0  0  0  0  0  0  0  0  0  0  0  0
   -1.1715    0.5260    0.5170 C   0  0  0  0  0  0  0  0  0  0  0  0
   -0.3744    0.3076   -0.7817 C   0  0  0  0  0  0  0  0  0  0  0  0
    1.0798    0.8316   -0.6878 C   0  0  0  0  0  0  0  0  0  0  0  0
    1.9306    0.1564    0.4153 C   0  0  0  0  0  0  0  0  0  0  0  0
    2.0354   -1.3660    0.2903 C   0  0  0  0  0  0  0  0  0  0  0  0
    1.7797    0.7457   -2.0242 C   0  0  0  0  0  0  0  0  0  0  0  0
    2.7265    1.7012   -2.3833 O   0  0  0  0  0  0  0  0  0  0  0  0
    1.5511   -0.2143   -2.8080 O   0  0  0  0  0  0  0  0  0  0  0  0
   -4.0789   -1.3829    0.1178 H   0  0  0  0  0  0  0  0  0  0  0  0
   -2.5807   -1.5728   -0.8569 H   0  0  0  0  0  0  0  0  0  0  0  0
   -2.5393   -1.8438    0.9354 H   0  0  0  0  0  0  0  0  0  0  0  0
   -3.0742    0.8448   -0.5093 H   0  0  0  0  0  0  0  0  0  0  0  0
   -3.2008    0.5831    1.2605 H   0  0  0  0  0  0  0  0  0  0  0  0
   -1.0527    1.5826    0.8423 H   0  0  0  0  0  0  0  0  0  0  0  0
   -0.7746   -0.1250    1.3251 H   0  0  0  0  0  0  0  0  0  0  0  0
   -0.3753   -0.7700   -1.0482 H   0  0  0  0  0  0  0  0  0  0  0  0
   -0.8862    0.8527   -1.6059 H   0  0  0  0  0  0  0  0  0  0  0  0
    1.0166    1.9120   -0.4292 H   0  0  0  0  0  0  0  0  0  0  0  0
    1.5158    0.4064    1.4148 H   0  0  0  0  0  0  0  0  0  0  0  0
    2.9576    0.5826    0.3890 H   0  0  0  0  0  0  0  0  0  0  0  0
    1.0482   -1.8446    0.4555 H   0  0  0  0  0  0  0  0  0  0  0  0
    2.7334   -1.7492    1.0641 H   0  0  0  0  0  0  0  0  0  0  0  0
    2.4290   -1.6560   -0.7057 H   0  0  0  0  0  0  0  0  0  0  0  0
    2.9566    2.4713   -1.7668 H   0  0  0  0  0  0  0  0  0  0  0  0
  1  2  1  0
  2  3  1  0
  3  4  1  0
  4  5  1  0
  5  6  1  0
  6  7  1  0
  5  8  1  0
  8  9  1  0
  8 10  2  0
  1 11  1  0
  1 12  1  0
  1 13  1  0
  2 14  1  0
  2 15  1  0
  3 16  1  0
  3 17  1  0
  4 18  1  0
  4 19  1  0
  5 20  1  0
  6 21  1  0
  6 22  1  0
  7 23  1  0
  7 24  1  0
  7 25  1  0
  9 26  1  0
M  END
