
     RDKit          3D

 22 24  0  0  0  0  0  0  0  0999 V2000
   -2.9336   -1.0562   -0.5692 C   0  0  0  0  0  0  0  0  0  0  0  0
   -1.5607   -1.2429   -0.4026 C   0  0  0  0  0  0  0  0  0  0  0  0
   -0.7172   -0.1442   -0.1225 C   0  0  0  0  0  0  0  0  0  0  0  0
   -1.3232    1.1369   -0.0205 C   0  0  0  0  0  0  0  0  0  0  0  0
   -0.5511    2.2670    0.2541 C   0  0  0  0  0  0  0  0  0  0  0  0
    0.8244    2.1544    0.4320 C   0  0  0  0  0  0  0  0  0  0  0  0
    1.4497    0.9099    0.3381 C   0  0  0  0  0  0  0  0  0  0  0  0
    0.6922   -0.2596    0.0598 C   0  0  0  0  0  0  0  0  0  0  0  0
    1.3921   -1.4847   -0.0207 C   0  0  0  0  0  0  0  0  0  0  0  0
    2.7742   -1.5235    0.1689 C   0  0  0  0  0  0  0  0  0  0  0  0
    3.4654   -0.3458    0.4391 C   0  0  0  0  0  0  0  0  0  0  0  0
    2.7961    0.8316    0.5169 N   0  0  0  0  0  0  0  0  0  0  0  0
   -2.6657    1.2787   -0.1894 N   0  0  0  0  0  0  0  0  0  0  0  0
   -3.4730    0.2222   -0.4582 C   0  0  0  0  0  0  0  0  0  0  0  0
   -3.5766   -1.9003   -0.7837 H   0  0  0  0  0  0  0  0  0  0  0  0
   -1.1901   -2.2506   -0.4977 H   0  0  0  0  0  0  0  0  0  0  0  0
   -1.0193    3.2409    0.3305 H   0  0  0  0  0  0  0  0  0  0  0  0
    1.4076    3.0422    0.6444 H   0  0  0  0  0  0  0  0  0  0  0  0
    0.9013   -2.4218   -0.2273 H   0  0  0  0  0  0  0  0  0  0  0  0
    3.3069   -2.4638    0.1065 H   0  0  0  0  0  0  0  0  0  0  0  0
    4.5368   -0.3666    0.5874 H   0  0  0  0  0  0  0  0  0  0  0  0
   -4.5362    0.3761   -0.5859 H   0  0  0  0  0  0  0  0  0  0  0  0
  1  2  2  0
  2  3  1  0
  3  4  2  0
  4  5  1  0
  5  6  2  0
  6  7  1  0
  7  8  2  0
  8  9  1  0
  9 10  2  0
 10 11  1  0
 11 12  2  0
  4 13  1  0
 13 14  2  0
 14  1  1  0
  8  3  1  0
 12  7  1  0
  1 15  1  0
  2 16  1  0
  5 17  1  0
  6 18  1  0
  9 19  1  0
 10 20  1  0
 11 21  1  0
 14 22  1  0
M  END
