
     RDKit          3D

 12 11  0  0  0  0  0  0  0  0999 V2000
   -1.1539   -0.5594    0.4187 C   0  0  0  0  0  0  0  0  0  0  0  0
   -0.0483    0.0196   -0.4666 C   0  0  0  0  0  0  0  0  0  0  0  0
    1.3259   -0.1726    0.1780 C   0  0  0  0  0  0  0  0  0  0  0  0
   -0.2948    1.4493   -0.7086 C   0  0  0  0  0  0  0  0  0  0  0  0
   -0.4887    2.5742   -0.8994 N   0  0  0  0  0  0  0  0  0  0  0  0
   -1.1746   -0.0511    1.4073 H   0  0  0  0  0  0  0  0  0  0  0  0
   -0.9848   -1.6457    0.5782 H   0  0  0  0  0  0  0  0  0  0  0  0
   -2.1432   -0.4322   -0.0715 H   0  0  0  0  0  0  0  0  0  0  0  0
   -0.0611   -0.5075   -1.4449 H   0  0  0  0  0  0  0  0  0  0  0  0
    2.1203    0.2327   -0.4853 H   0  0  0  0  0  0  0  0  0  0  0  0
    1.3776    0.3469    1.1596 H   0  0  0  0  0  0  0  0  0  0  0  0
    1.5256   -1.2542    0.3345 H   0  0  0  0  0  0  0  0  0  0  0  0
  1  2  1  0
  2  3  1  0
  2  4  1  0
  4  5  3  0
  1  6  1  0
  1  7  1  0
  1  8  1  0
  2  9  1  0
  3 10  1  0
  3 11  1  0
  3 12  1  0
M  END
