
     RDKit          3D

 10 10  0  0  0  0  0  0  0  0999 V2000
   -0.7397    0.7406    0.0192 C   0  0  0  0  0  0  0  0  0  0  0  0
    0.6513    0.8175    0.0592 C   0  0  0  0  0  0  0  0  0  0  0  0
    1.3973   -0.3597    0.0175 C   0  0  0  0  0  0  0  0  0  0  0  0
    0.7565   -1.5558   -0.0610 N   0  0  0  0  0  0  0  0  0  0  0  0
   -0.5759   -1.6294   -0.0993 N   0  0  0  0  0  0  0  0  0  0  0  0
   -1.3479   -0.5115   -0.0613 C   0  0  0  0  0  0  0  0  0  0  0  0
   -1.3398    1.6408    0.0503 H   0  0  0  0  0  0  0  0  0  0  0  0
    1.1459    1.7782    0.1217 H   0  0  0  0  0  0  0  0  0  0  0  0
    2.4781   -0.3248    0.0473 H   0  0  0  0  0  0  0  0  0  0  0  0
   -2.4259   -0.5959   -0.0936 H   0  0  0  0  0  0  0  0  0  0  0  0
  1  2  2  0
  2  3  1  0
  3  4  2  0
  4  5  1  0
  5  6  2  0
  6  1  1  0
  1  7  1  0
  2  8  1  0
  3  9  1  0
  6 10  1  0
M  END
