
     RDKit          3D

 10 10  0  0  0  0  0  0  0  0999 V2000
    1.0757   -0.8502   -0.0975 C   0  0  0  0  0  0  0  0  0  0  0  0
    1.2692    0.5217    0.0805 C   0  0  0  0  0  0  0  0  0  0  0  0
    0.1893    1.3420    0.1742 N   0  0  0  0  0  0  0  0  0  0  0  0
   -1.0757    0.8502    0.0975 C   0  0  0  0  0  0  0  0  0  0  0  0
   -1.2692   -0.5217   -0.0805 C   0  0  0  0  0  0  0  0  0  0  0  0
   -0.1893   -1.3420   -0.1742 N   0  0  0  0  0  0  0  0  0  0  0  0
    1.9231   -1.5183   -0.1741 H   0  0  0  0  0  0  0  0  0  0  0  0
    2.2685    0.9311    0.1437 H   0  0  0  0  0  0  0  0  0  0  0  0
   -1.9231    1.5183    0.1742 H   0  0  0  0  0  0  0  0  0  0  0  0
   -2.2685   -0.9311   -0.1438 H   0  0  0  0  0  0  0  0  0  0  0  0
  1  2  2  0
  2  3  1  0
  3  4  2  0
  4  5  1  0
  5  6  2  0
  6  1  1  0
  1  7  1  0
  2  8  1  0
  4  9  1  0
  5 10  1  0
M  END
