
     RDKit          3D

 19 19  0  0  0  0  0  0  0  0999 V2000
    2.5946    0.6023    0.9280 C   0  0  0  0  0  0  0  0  0  0  0  0
    2.0695    1.0822   -0.2032 C   0  0  0  0  0  0  0  0  0  0  0  0
    0.6482    1.5663   -0.2714 C   0  0  0  0  0  0  0  0  0  0  0  0
   -0.3134    0.4098   -0.2079 C   0  0  0  0  0  0  0  0  0  0  0  0
   -0.9255    0.0583    1.0073 C   0  0  0  0  0  0  0  0  0  0  0  0
   -1.7972   -1.0335    1.0666 C   0  0  0  0  0  0  0  0  0  0  0  0
   -2.0584   -1.7850   -0.0825 C   0  0  0  0  0  0  0  0  0  0  0  0
   -1.4459   -1.4478   -1.2926 C   0  0  0  0  0  0  0  0  0  0  0  0
   -0.5733   -0.3568   -1.3565 C   0  0  0  0  0  0  0  0  0  0  0  0
    3.6256    0.2646    0.9474 H   0  0  0  0  0  0  0  0  0  0  0  0
    2.0045    0.5442    1.8375 H   0  0  0  0  0  0  0  0  0  0  0  0
    2.6881    1.1352   -1.0942 H   0  0  0  0  0  0  0  0  0  0  0  0
    0.4993    2.1145   -1.2267 H   0  0  0  0  0  0  0  0  0  0  0  0
    0.4562    2.2903    0.5508 H   0  0  0  0  0  0  0  0  0  0  0  0
   -0.7270    0.6276    1.9069 H   0  0  0  0  0  0  0  0  0  0  0  0
   -2.2684   -1.2987    2.0042 H   0  0  0  0  0  0  0  0  0  0  0  0
   -2.7326   -2.6303   -0.0345 H   0  0  0  0  0  0  0  0  0  0  0  0
   -1.6450   -2.0334   -2.1808 H   0  0  0  0  0  0  0  0  0  0  0  0
   -0.0991   -0.1099   -2.2984 H   0  0  0  0  0  0  0  0  0  0  0  0
  1  2  2  3
  2  3  1  0
  3  4  1  0
  4  5  2  0
  5  6  1  0
  6  7  2  0
  7  8  1  0
  8  9  2  0
  9  4  1  0
  1 10  1  0
  1 11  1  0
  2 12  1  0
  3 13  1  0
  3 14  1  0
  5 15  1  0
  6 16  1  0
  7 17  1  0
  8 18  1  0
  9 19  1  0
M  END
