
     RDKit          3D

 14 14  0  0  0  0  0  0  0  0999 V2000
    3.1971   -0.6802   -0.1589 F   0  0  0  0  0  0  0  0  0  0  0  0
    1.8705   -0.4061   -0.0964 C   0  0  0  0  0  0  0  0  0  0  0  0
    0.9401   -1.3947   -0.4173 C   0  0  0  0  0  0  0  0  0  0  0  0
   -0.4299   -1.1218   -0.3561 C   0  0  0  0  0  0  0  0  0  0  0  0
   -0.8878    0.1579    0.0318 C   0  0  0  0  0  0  0  0  0  0  0  0
    0.0661    1.1489    0.3536 C   0  0  0  0  0  0  0  0  0  0  0  0
    1.4347    0.8632    0.2880 C   0  0  0  0  0  0  0  0  0  0  0  0
    2.3419    1.8237    0.5954 F   0  0  0  0  0  0  0  0  0  0  0  0
   -0.3184    2.3994    0.7134 F   0  0  0  0  0  0  0  0  0  0  0  0
   -2.3001    0.4482    0.0993 N   0  0  0  0  0  4  0  0  0  0  0  0
   -2.7577    1.5779    0.7377 O   0  0  0  0  0  1  0  0  0  0  0  0
   -3.1362   -0.3213   -0.4176 O   0  0  0  0  0  0  0  0  0  0  0  0
   -1.3015   -2.1163   -0.6603 F   0  0  0  0  0  0  0  0  0  0  0  0
    1.2812   -2.3789   -0.7125 H   0  0  0  0  0  0  0  0  0  0  0  0
  1  2  1  0
  2  3  2  0
  3  4  1  0
  4  5  2  0
  5  6  1  0
  6  7  2  0
  7  8  1  0
  6  9  1  0
  5 10  1  0
 10 11  1  0
 10 12  2  0
  4 13  1  0
  7  2  1  0
  3 14  1  0
M  CHG  2  10   1  11  -1
M  END
