
     RDKit          3D

 16 16  0  0  0  0  0  0  0  0999 V2000
    2.8430    0.2960    0.5038 O   0  0  0  0  0  0  0  0  0  0  0  0
    1.9576   -0.3328   -0.3668 C   0  0  0  0  0  0  0  0  0  0  0  0
    2.4110   -1.0766   -1.2783 O   0  0  0  0  0  0  0  0  0  0  0  0
    0.4963   -0.1866   -0.1904 C   0  0  0  0  0  0  0  0  0  0  0  0
   -0.3293   -1.2954   -0.4551 C   0  0  0  0  0  0  0  0  0  0  0  0
   -1.7072   -1.2289   -0.2294 C   0  0  0  0  0  0  0  0  0  0  0  0
   -2.2774   -0.0542    0.2631 C   0  0  0  0  0  0  0  0  0  0  0  0
   -1.4755    1.0606    0.5114 C   0  0  0  0  0  0  0  0  0  0  0  0
   -0.0968    1.0163    0.2698 C   0  0  0  0  0  0  0  0  0  0  0  0
    0.6355    2.1894    0.4629 O   0  0  0  0  0  0  0  0  0  0  0  0
   -2.7179   -2.6268   -0.5488 Cl  0  0  0  0  0  0  0  0  0  0  0  0
    3.8443    0.1831    0.3988 H   0  0  0  0  0  0  0  0  0  0  0  0
    0.1001   -2.2238   -0.8124 H   0  0  0  0  0  0  0  0  0  0  0  0
   -3.3432   -0.0004    0.4452 H   0  0  0  0  0  0  0  0  0  0  0  0
   -1.9311    1.9742    0.8723 H   0  0  0  0  0  0  0  0  0  0  0  0
    1.5906    2.3060    0.1538 H   0  0  0  0  0  0  0  0  0  0  0  0
  1  2  1  0
  2  3  2  0
  2  4  1  0
  4  5  2  0
  5  6  1  0
  6  7  2  0
  7  8  1  0
  8  9  2  0
  9 10  1  0
  6 11  1  0
  9  4  1  0
  1 12  1  0
  5 13  1  0
  7 14  1  0
  8 15  1  0
 10 16  1  0
M  END
