
     RDKit          3D

 22 23  0  0  0  0  0  0  0  0999 V2000
    4.8622    0.4866    0.2387 F   0  0  0  0  0  0  0  0  0  0  0  0
    3.5167    0.3520    0.1408 C   0  0  0  0  0  0  0  0  0  0  0  0
    2.9282   -0.9071    0.2819 C   0  0  0  0  0  0  0  0  0  0  0  0
    1.5408   -1.0488    0.1809 C   0  0  0  0  0  0  0  0  0  0  0  0
    0.7249    0.0726   -0.0622 C   0  0  0  0  0  0  0  0  0  0  0  0
    1.3300    1.3361   -0.2020 C   0  0  0  0  0  0  0  0  0  0  0  0
    2.7180    1.4722   -0.1011 C   0  0  0  0  0  0  0  0  0  0  0  0
   -0.7493   -0.0750   -0.1694 C   0  0  0  0  0  0  0  0  0  0  0  0
   -1.3115   -1.1731   -0.8482 C   0  0  0  0  0  0  0  0  0  0  0  0
   -2.6996   -1.3092   -0.9479 C   0  0  0  0  0  0  0  0  0  0  0  0
   -3.5407   -0.3544   -0.3724 C   0  0  0  0  0  0  0  0  0  0  0  0
   -2.9956    0.7392    0.3039 C   0  0  0  0  0  0  0  0  0  0  0  0
   -1.6083    0.8809    0.4059 C   0  0  0  0  0  0  0  0  0  0  0  0
    3.5464   -1.7748    0.4732 H   0  0  0  0  0  0  0  0  0  0  0  0
    1.1052   -2.0315    0.3107 H   0  0  0  0  0  0  0  0  0  0  0  0
    0.7324    2.2154   -0.4070 H   0  0  0  0  0  0  0  0  0  0  0  0
    3.1738    2.4474   -0.2143 H   0  0  0  0  0  0  0  0  0  0  0  0
   -0.6786   -1.9163   -1.3167 H   0  0  0  0  0  0  0  0  0  0  0  0
   -3.1232   -2.1543   -1.4751 H   0  0  0  0  0  0  0  0  0  0  0  0
   -4.6149   -0.4619   -0.4505 H   0  0  0  0  0  0  0  0  0  0  0  0
   -3.6486    1.4765    0.7527 H   0  0  0  0  0  0  0  0  0  0  0  0
   -1.2081    1.7274    0.9496 H   0  0  0  0  0  0  0  0  0  0  0  0
  1  2  1  0
  2  3  2  0
  3  4  1  0
  4  5  2  0
  5  6  1  0
  6  7  2  0
  5  8  1  0
  8  9  2  0
  9 10  1  0
 10 11  2  0
 11 12  1  0
 12 13  2  0
  7  2  1  0
 13  8  1  0
  3 14  1  0
  4 15  1  0
  6 16  1  0
  7 17  1  0
  9 18  1  0
 10 19  1  0
 11 20  1  0
 12 21  1  0
 13 22  1  0
M  END
