
     RDKit          3D

 32 31  0  0  0  0  0  0  0  0999 V2000
   -2.5877    2.4334    0.9152 C   0  0  0  0  0  0  0  0  0  0  0  0
   -3.4078    1.2261    0.4620 C   0  0  0  0  0  0  0  0  0  0  0  0
   -3.0462   -0.0654    1.2172 C   0  0  0  0  0  0  0  0  0  0  0  0
   -1.5921   -0.5347    1.0308 C   0  0  0  0  0  0  0  0  0  0  0  0
   -1.2572   -0.8721   -0.4325 C   0  0  0  0  0  0  0  0  0  0  0  0
    0.0867   -1.6032   -0.5774 C   0  0  0  0  0  0  0  0  0  0  0  0
    1.2869   -0.7006   -0.2551 C   0  0  0  0  0  0  0  0  0  0  0  0
    2.6109   -1.4201   -0.5522 C   0  0  0  0  0  0  0  0  0  0  0  0
    3.8318   -0.5799   -0.1550 C   0  0  0  0  0  0  0  0  0  0  0  0
    3.9834    0.6302   -1.0298 C   0  0  0  0  0  0  0  0  0  0  0  0
    3.4941    1.8679   -0.6216 O   0  0  0  0  0  0  0  0  0  0  0  0
    4.5300    0.5229   -2.1590 O   0  0  0  0  0  0  0  0  0  0  0  0
   -3.0014    3.3546    0.4534 H   0  0  0  0  0  0  0  0  0  0  0  0
   -2.6310    2.5412    2.0199 H   0  0  0  0  0  0  0  0  0  0  0  0
   -1.5308    2.3325    0.5920 H   0  0  0  0  0  0  0  0  0  0  0  0
   -3.2924    1.0843   -0.6331 H   0  0  0  0  0  0  0  0  0  0  0  0
   -4.4812    1.4456    0.6493 H   0  0  0  0  0  0  0  0  0  0  0  0
   -3.2322    0.0889    2.3025 H   0  0  0  0  0  0  0  0  0  0  0  0
   -3.7321   -0.8746    0.8841 H   0  0  0  0  0  0  0  0  0  0  0  0
   -1.4500   -1.4450    1.6534 H   0  0  0  0  0  0  0  0  0  0  0  0
   -0.8970    0.2385    1.4178 H   0  0  0  0  0  0  0  0  0  0  0  0
   -2.0528   -1.5314   -0.8435 H   0  0  0  0  0  0  0  0  0  0  0  0
   -1.2349    0.0556   -1.0436 H   0  0  0  0  0  0  0  0  0  0  0  0
    0.1002   -2.5006    0.0795 H   0  0  0  0  0  0  0  0  0  0  0  0
    0.1734   -1.9550   -1.6290 H   0  0  0  0  0  0  0  0  0  0  0  0
    1.2636   -0.4188    0.8192 H   0  0  0  0  0  0  0  0  0  0  0  0
    1.2229    0.2248   -0.8676 H   0  0  0  0  0  0  0  0  0  0  0  0
    2.6695   -1.6760   -1.6333 H   0  0  0  0  0  0  0  0  0  0  0  0
    2.6425   -2.3710    0.0237 H   0  0  0  0  0  0  0  0  0  0  0  0
    3.7536   -0.2725    0.9102 H   0  0  0  0  0  0  0  0  0  0  0  0
    4.7448   -1.2066   -0.2506 H   0  0  0  0  0  0  0  0  0  0  0  0
    3.0326    1.9809    0.2730 H   0  0  0  0  0  0  0  0  0  0  0  0
  1  2  1  0
  2  3  1  0
  3  4  1  0
  4  5  1  0
  5  6  1  0
  6  7  1  0
  7  8  1  0
  8  9  1  0
  9 10  1  0
 10 11  1  0
 10 12  2  0
  1 13  1  0
  1 14  1  0
  1 15  1  0
  2 16  1  0
  2 17  1  0
  3 18  1  0
  3 19  1  0
  4 20  1  0
  4 21  1  0
  5 22  1  0
  5 23  1  0
  6 24  1  0
  6 25  1  0
  7 26  1  0
  7 27  1  0
  8 28  1  0
  8 29  1  0
  9 30  1  0
  9 31  1  0
 11 32  1  0
M  END
