
     RDKit          3D

 13 12  0  0  0  0  0  0  0  0999 V2000
    1.7275   -0.2051    0.1854 C   0  0  0  0  0  0  0  0  0  0  0  0
    0.4488   -0.7131   -0.4726 C   0  0  0  0  0  0  0  0  0  0  0  0
   -0.5099    0.4197   -0.7286 C   0  0  0  0  0  0  0  0  0  0  0  0
   -1.8177    0.5167   -0.0002 C   0  0  0  0  0  0  0  0  0  0  0  0
   -0.2246    1.2741   -1.5541 O   0  0  0  0  0  0  0  0  0  0  0  0
    2.4125   -1.0583    0.3745 H   0  0  0  0  0  0  0  0  0  0  0  0
    2.2426    0.5222   -0.4780 H   0  0  0  0  0  0  0  0  0  0  0  0
    1.4923    0.2844    1.1547 H   0  0  0  0  0  0  0  0  0  0  0  0
   -0.0135   -1.4785    0.1868 H   0  0  0  0  0  0  0  0  0  0  0  0
    0.6991   -1.2048   -1.4372 H   0  0  0  0  0  0  0  0  0  0  0  0
   -2.6530    0.4807   -0.7305 H   0  0  0  0  0  0  0  0  0  0  0  0
   -1.9420   -0.3153    0.7239 H   0  0  0  0  0  0  0  0  0  0  0  0
   -1.8621    1.4772    0.5548 H   0  0  0  0  0  0  0  0  0  0  0  0
  1  2  1  0
  2  3  1  0
  3  4  1  0
  3  5  2  0
  1  6  1  0
  1  7  1  0
  1  8  1  0
  2  9  1  0
  2 10  1  0
  4 11  1  0
  4 12  1  0
  4 13  1  0
M  END
