
     RDKit          3D

 14 14  0  0  0  0  0  0  0  0999 V2000
   -1.8134    2.3755    0.4730 F   0  0  0  0  0  0  0  0  0  0  0  0
   -1.1754    1.2029    0.2359 C   0  0  0  0  0  0  0  0  0  0  0  0
   -1.9156    0.0454   -0.0175 C   0  0  0  0  0  0  0  0  0  0  0  0
   -1.2597   -1.1631   -0.2619 C   0  0  0  0  0  0  0  0  0  0  0  0
    0.1375   -1.2178   -0.2537 C   0  0  0  0  0  0  0  0  0  0  0  0
    0.8950   -0.0581    0.0004 C   0  0  0  0  0  0  0  0  0  0  0  0
    0.2226    1.1536    0.2453 C   0  0  0  0  0  0  0  0  0  0  0  0
    2.3334   -0.1076    0.0103 N   0  0  0  0  0  4  0  0  0  0  0  0
    3.0705    1.0277    0.2590 O   0  0  0  0  0  1  0  0  0  0  0  0
    2.9354   -1.1799   -0.2063 O   0  0  0  0  0  0  0  0  0  0  0  0
   -2.9973    0.0840   -0.0246 H   0  0  0  0  0  0  0  0  0  0  0  0
   -1.8344   -2.0591   -0.4580 H   0  0  0  0  0  0  0  0  0  0  0  0
    0.6246   -2.1652   -0.4456 H   0  0  0  0  0  0  0  0  0  0  0  0
    0.7770    2.0617    0.4437 H   0  0  0  0  0  0  0  0  0  0  0  0
  1  2  1  0
  2  3  2  0
  3  4  1  0
  4  5  2  0
  5  6  1  0
  6  7  2  0
  6  8  1  0
  8  9  1  0
  8 10  2  0
  7  2  1  0
  3 11  1  0
  4 12  1  0
  5 13  1  0
  7 14  1  0
M  CHG  2   8   1   9  -1
M  END
