
     RDKit          3D

 12 11  0  0  0  0  0  0  0  0999 V2000
   -1.3530   -0.6271    0.3942 C   0  0  0  0  0  0  0  0  0  0  0  0
   -0.3683   -0.0434   -0.6123 C   0  0  0  0  0  0  0  0  0  0  0  0
    0.6300    0.8376    0.0752 C   0  0  0  0  0  0  0  0  0  0  0  0
    1.7924    0.2747    0.6831 N   0  0  0  0  0  0  0  0  0  0  0  0
    0.4239    2.0783    0.1506 O   0  0  0  0  0  0  0  0  0  0  0  0
   -1.9055    0.1874    0.9099 H   0  0  0  0  0  0  0  0  0  0  0  0
   -0.8157   -1.2410    1.1486 H   0  0  0  0  0  0  0  0  0  0  0  0
   -2.0847   -1.2740   -0.1341 H   0  0  0  0  0  0  0  0  0  0  0  0
    0.1604   -0.8696   -1.1343 H   0  0  0  0  0  0  0  0  0  0  0  0
   -0.9255    0.5431   -1.3747 H   0  0  0  0  0  0  0  0  0  0  0  0
    1.9657   -0.7544    0.6488 H   0  0  0  0  0  0  0  0  0  0  0  0
    2.4803    0.8883    1.1735 H   0  0  0  0  0  0  0  0  0  0  0  0
  1  2  1  0
  2  3  1  0
  3  4  1  0
  3  5  2  0
  1  6  1  0
  1  7  1  0
  1  8  1  0
  2  9  1  0
  2 10  1  0
  4 11  1  0
  4 12  1  0
M  END
