
     RDKit          3D

 21 21  0  0  0  0  0  0  0  0999 V2000
    3.7506   -0.8082    0.5827 C   0  0  0  0  0  0  0  0  0  0  0  0
    2.8794    0.0076   -0.3588 C   0  0  0  0  0  0  0  0  0  0  0  0
    1.5140   -0.1215    0.0233 O   0  0  0  0  0  0  0  0  0  0  0  0
    0.4736    0.5181   -0.6594 C   0  0  0  0  0  0  0  0  0  0  0  0
    0.7280    1.2458   -1.6589 O   0  0  0  0  0  0  0  0  0  0  0  0
   -0.9235    0.3392   -0.2067 C   0  0  0  0  0  0  0  0  0  0  0  0
   -1.2108   -0.4711    0.9069 C   0  0  0  0  0  0  0  0  0  0  0  0
   -2.5307   -0.6415    1.3365 C   0  0  0  0  0  0  0  0  0  0  0  0
   -3.5758   -0.0067    0.6609 C   0  0  0  0  0  0  0  0  0  0  0  0
   -4.8545   -0.1737    1.0795 F   0  0  0  0  0  0  0  0  0  0  0  0
   -3.3025    0.8002   -0.4462 C   0  0  0  0  0  0  0  0  0  0  0  0
   -1.9844    0.9741   -0.8800 C   0  0  0  0  0  0  0  0  0  0  0  0
    3.6290   -0.4427    1.6243 H   0  0  0  0  0  0  0  0  0  0  0  0
    4.8165   -0.7097    0.2874 H   0  0  0  0  0  0  0  0  0  0  0  0
    3.4603   -1.8792    0.5356 H   0  0  0  0  0  0  0  0  0  0  0  0
    3.1841    1.0755   -0.3083 H   0  0  0  0  0  0  0  0  0  0  0  0
    3.0151   -0.3625   -1.3982 H   0  0  0  0  0  0  0  0  0  0  0  0
   -0.4177   -0.9732    1.4466 H   0  0  0  0  0  0  0  0  0  0  0  0
   -2.7420   -1.2669    2.1944 H   0  0  0  0  0  0  0  0  0  0  0  0
   -4.1119    1.2923   -0.9701 H   0  0  0  0  0  0  0  0  0  0  0  0
   -1.7968    1.6042   -1.7404 H   0  0  0  0  0  0  0  0  0  0  0  0
  1  2  1  0
  2  3  1  0
  3  4  1  0
  4  5  2  0
  4  6  1  0
  6  7  2  0
  7  8  1  0
  8  9  2  0
  9 10  1  0
  9 11  1  0
 11 12  2  0
 12  6  1  0
  1 13  1  0
  1 14  1  0
  1 15  1  0
  2 16  1  0
  2 17  1  0
  7 18  1  0
  8 19  1  0
 11 20  1  0
 12 21  1  0
M  END
