
     RDKit          3D

 10  9  0  0  0  0  0  0  0  0999 V2000
   -1.8603    0.1741   -0.0028 N   0  0  0  0  0  0  0  0  0  0  0  0
   -0.4589    0.4215   -0.1109 C   0  0  0  0  0  0  0  0  0  0  0  0
   -0.0492    1.3476   -0.8622 O   0  0  0  0  0  0  0  0  0  0  0  0
    0.4938   -0.4043    0.6533 C   0  0  0  0  0  0  0  0  0  0  0  0
    1.8113   -0.2190    0.5914 C   0  0  0  0  0  0  0  0  0  0  0  0
   -2.2230   -0.5873    0.6130 H   0  0  0  0  0  0  0  0  0  0  0  0
   -2.5407    0.7551   -0.5412 H   0  0  0  0  0  0  0  0  0  0  0  0
    0.1088   -1.1917    1.2894 H   0  0  0  0  0  0  0  0  0  0  0  0
    2.2460    0.5544   -0.0292 H   0  0  0  0  0  0  0  0  0  0  0  0
    2.4723   -0.8503    1.1709 H   0  0  0  0  0  0  0  0  0  0  0  0
  1  2  1  0
  2  3  2  0
  2  4  1  0
  4  5  2  3
  1  6  1  0
  1  7  1  0
  4  8  1  0
  5  9  1  0
  5 10  1  0
M  END
