
     RDKit          3D

 11 11  0  0  0  0  0  0  0  0999 V2000
   -2.7779   -0.0866   -0.1017 O   0  0  0  0  0  0  0  0  0  0  0  0
   -1.7222   -0.4871    0.4562 C   0  0  0  0  0  0  0  0  0  0  0  0
   -0.4065   -0.0226   -0.0030 C   0  0  0  0  0  0  0  0  0  0  0  0
   -0.2264    0.8686   -1.0571 C   0  0  0  0  0  0  0  0  0  0  0  0
    1.4244    1.1239   -1.2410 S   0  0  0  0  0  0  0  0  0  0  0  0
    1.9241    0.1139    0.0057 C   0  0  0  0  0  0  0  0  0  0  0  0
    0.7941   -0.4424    0.5887 C   0  0  0  0  0  0  0  0  0  0  0  0
   -1.7912   -1.1819    1.2833 H   0  0  0  0  0  0  0  0  0  0  0  0
   -1.0069    1.3199   -1.6554 H   0  0  0  0  0  0  0  0  0  0  0  0
    2.9469   -0.0720    0.3040 H   0  0  0  0  0  0  0  0  0  0  0  0
    0.8417   -1.1337    1.4203 H   0  0  0  0  0  0  0  0  0  0  0  0
  1  2  2  0
  2  3  1  0
  3  4  2  0
  4  5  1  0
  5  6  1  0
  6  7  2  0
  7  3  1  0
  2  8  1  0
  4  9  1  0
  6 10  1  0
  7 11  1  0
M  END
