
     RDKit          3D

 26 25  0  0  0  0  0  0  0  0999 V2000
   -3.4048    2.2609    1.3107 O   0  0  0  0  0  0  0  0  0  0  0  0
   -3.4034    1.3134    0.2913 C   0  0  0  0  0  0  0  0  0  0  0  0
   -3.5817    1.6839   -0.8988 O   0  0  0  0  0  0  0  0  0  0  0  0
   -3.1619   -0.1358    0.5970 C   0  0  0  0  0  0  0  0  0  0  0  0
   -1.6795   -0.4196    0.8723 C   0  0  0  0  0  0  0  0  0  0  0  0
   -0.8147   -0.2666   -0.3876 C   0  0  0  0  0  0  0  0  0  0  0  0
    0.6494   -0.6153   -0.0950 C   0  0  0  0  0  0  0  0  0  0  0  0
    1.5159   -0.4534   -1.3526 C   0  0  0  0  0  0  0  0  0  0  0  0
    2.9765   -0.8536   -1.1069 C   0  0  0  0  0  0  0  0  0  0  0  0
    3.6701    0.1095   -0.1885 C   0  0  0  0  0  0  0  0  0  0  0  0
    4.0827    1.3557   -0.6507 O   0  0  0  0  0  0  0  0  0  0  0  0
    3.8602   -0.1977    1.0178 O   0  0  0  0  0  0  0  0  0  0  0  0
   -3.2543    1.9916    2.2756 H   0  0  0  0  0  0  0  0  0  0  0  0
   -3.7537   -0.4104    1.4964 H   0  0  0  0  0  0  0  0  0  0  0  0
   -3.5215   -0.7699   -0.2429 H   0  0  0  0  0  0  0  0  0  0  0  0
   -1.5902   -1.4626    1.2476 H   0  0  0  0  0  0  0  0  0  0  0  0
   -1.3097    0.2607    1.6711 H   0  0  0  0  0  0  0  0  0  0  0  0
   -0.8720    0.7819   -0.7531 H   0  0  0  0  0  0  0  0  0  0  0  0
   -1.2014   -0.9405   -1.1836 H   0  0  0  0  0  0  0  0  0  0  0  0
    0.7127   -1.6666    0.2628 H   0  0  0  0  0  0  0  0  0  0  0  0
    1.0288    0.0548    0.7070 H   0  0  0  0  0  0  0  0  0  0  0  0
    1.4708    0.5987   -1.7114 H   0  0  0  0  0  0  0  0  0  0  0  0
    1.1092   -1.1035   -2.1580 H   0  0  0  0  0  0  0  0  0  0  0  0
    3.5147   -0.8646   -2.0788 H   0  0  0  0  0  0  0  0  0  0  0  0
    3.0242   -1.8833   -0.6896 H   0  0  0  0  0  0  0  0  0  0  0  0
    3.9336    1.6322   -1.6138 H   0  0  0  0  0  0  0  0  0  0  0  0
  1  2  1  0
  2  3  2  0
  2  4  1  0
  4  5  1  0
  5  6  1  0
  6  7  1  0
  7  8  1  0
  8  9  1  0
  9 10  1  0
 10 11  1  0
 10 12  2  0
  1 13  1  0
  4 14  1  0
  4 15  1  0
  5 16  1  0
  5 17  1  0
  6 18  1  0
  6 19  1  0
  7 20  1  0
  7 21  1  0
  8 22  1  0
  8 23  1  0
  9 24  1  0
  9 25  1  0
 11 26  1  0
M  END
