
     RDKit          3D

 17 16  0  0  0  0  0  0  0  0999 V2000
   -2.1970   -1.2436   -0.0177 C   0  0  0  0  0  0  0  0  0  0  0  0
   -1.5930   -0.0895    0.5106 O   0  0  0  0  0  0  0  0  0  0  0  0
   -0.0018    0.0075   -0.0985 P   0  0  0  0  0  5  0  0  0  0  0  0
   -0.0400    0.1694   -1.6041 O   0  0  0  0  0  0  0  0  0  0  0  0
    0.8428   -1.4193    0.3058 O   0  0  0  0  0  0  0  0  0  0  0  0
    2.1713   -1.2837   -0.1330 C   0  0  0  0  0  0  0  0  0  0  0  0
    0.7885    1.3467    0.6046 O   0  0  0  0  0  0  0  0  0  0  0  0
    0.0324    2.4990    0.3281 C   0  0  0  0  0  0  0  0  0  0  0  0
   -3.2367   -1.3017    0.3645 H   0  0  0  0  0  0  0  0  0  0  0  0
   -2.2549   -1.2007   -1.1279 H   0  0  0  0  0  0  0  0  0  0  0  0
   -1.6705   -2.1647    0.3155 H   0  0  0  0  0  0  0  0  0  0  0  0
    2.6869   -0.4483    0.3895 H   0  0  0  0  0  0  0  0  0  0  0  0
    2.2241   -1.1528   -1.2364 H   0  0  0  0  0  0  0  0  0  0  0  0
    2.7194   -2.2157    0.1149 H   0  0  0  0  0  0  0  0  0  0  0  0
   -0.9762    2.4426    0.7933 H   0  0  0  0  0  0  0  0  0  0  0  0
    0.5512    3.3737    0.7711 H   0  0  0  0  0  0  0  0  0  0  0  0
   -0.0465    2.6810   -0.7665 H   0  0  0  0  0  0  0  0  0  0  0  0
  1  2  1  0
  2  3  1  0
  3  4  2  0
  3  5  1  0
  5  6  1  0
  3  7  1  0
  7  8  1  0
  1  9  1  0
  1 10  1  0
  1 11  1  0
  6 12  1  0
  6 13  1  0
  6 14  1  0
  8 15  1  0
  8 16  1  0
  8 17  1  0
M  END
