
     RDKit          3D

 18 19  0  0  0  0  0  0  0  0999 V2000
    3.3920   -1.6761    0.5448 O   0  0  0  0  0  0  0  0  0  0  0  0
    2.3687   -0.9665    0.3546 C   0  0  0  0  0  0  0  0  0  0  0  0
    2.5017    0.4898    0.1835 C   0  0  0  0  0  0  0  0  0  0  0  0
    1.4260    1.2597   -0.0194 C   0  0  0  0  0  0  0  0  0  0  0  0
    0.0599    0.6848   -0.0807 C   0  0  0  0  0  0  0  0  0  0  0  0
   -1.0435    1.5243   -0.2952 C   0  0  0  0  0  0  0  0  0  0  0  0
   -2.3335    0.9900   -0.3542 C   0  0  0  0  0  0  0  0  0  0  0  0
   -2.5318   -0.3840   -0.1998 C   0  0  0  0  0  0  0  0  0  0  0  0
   -1.4414   -1.2314    0.0143 C   0  0  0  0  0  0  0  0  0  0  0  0
   -0.1396   -0.7057    0.0756 C   0  0  0  0  0  0  0  0  0  0  0  0
    1.0324   -1.5792    0.3010 C   0  0  0  0  0  0  0  0  0  0  0  0
    0.8981   -2.8247    0.4454 O   0  0  0  0  0  0  0  0  0  0  0  0
    3.4841    0.9442    0.2224 H   0  0  0  0  0  0  0  0  0  0  0  0
    1.5624    2.3275   -0.1411 H   0  0  0  0  0  0  0  0  0  0  0  0
   -0.9061    2.5918   -0.4167 H   0  0  0  0  0  0  0  0  0  0  0  0
   -3.1811    1.6424   -0.5198 H   0  0  0  0  0  0  0  0  0  0  0  0
   -3.5328   -0.7932   -0.2463 H   0  0  0  0  0  0  0  0  0  0  0  0
   -1.6154   -2.2937    0.1316 H   0  0  0  0  0  0  0  0  0  0  0  0
  1  2  2  0
  2  3  1  0
  3  4  2  0
  4  5  1  0
  5  6  2  0
  6  7  1  0
  7  8  2  0
  8  9  1  0
  9 10  2  0
 10 11  1  0
 11 12  2  0
 11  2  1  0
 10  5  1  0
  3 13  1  0
  4 14  1  0
  6 15  1  0
  7 16  1  0
  8 17  1  0
  9 18  1  0
M  END
