
     RDKit          3D

 11 10  0  0  0  0  0  0  0  0999 V2000
   -1.1968   -0.4170    0.2498 C   0  0  0  0  0  0  0  0  0  0  0  0
   -0.1879    0.6531   -0.1500 C   0  0  0  0  0  0  0  0  0  0  0  0
    1.1928    0.2647    0.2838 C   0  0  0  0  0  0  0  0  0  0  0  0
    1.9659   -0.5896   -0.4969 O   0  0  0  0  0  0  0  0  0  0  0  0
    1.6471    0.6820    1.3815 O   0  0  0  0  0  0  0  0  0  0  0  0
   -0.9435   -1.3857   -0.2317 H   0  0  0  0  0  0  0  0  0  0  0  0
   -1.2045   -0.5464    1.3534 H   0  0  0  0  0  0  0  0  0  0  0  0
   -2.2123   -0.1116   -0.0793 H   0  0  0  0  0  0  0  0  0  0  0  0
   -0.2064    0.7852   -1.2530 H   0  0  0  0  0  0  0  0  0  0  0  0
   -0.4718    1.6208    0.3175 H   0  0  0  0  0  0  0  0  0  0  0  0
    1.6174   -0.9556   -1.3749 H   0  0  0  0  0  0  0  0  0  0  0  0
  1  2  1  0
  2  3  1  0
  3  4  1  0
  3  5  2  0
  1  6  1  0
  1  7  1  0
  1  8  1  0
  2  9  1  0
  2 10  1  0
  4 11  1  0
M  END
