
     RDKit          3D

 16 16  0  0  0  0  0  0  0  0999 V2000
    2.0487   -1.7513    1.8220 O   0  0  0  0  0  1  0  0  0  0  0  0
    1.6275   -0.5075    1.4110 N   0  0  0  0  0  4  0  0  0  0  0  0
    2.1326    0.5041    1.9402 O   0  0  0  0  0  0  0  0  0  0  0  0
    0.4753   -0.3828    0.5608 C   0  0  0  0  0  0  0  0  0  0  0  0
    0.3243    0.7085   -0.3333 C   0  0  0  0  0  0  0  0  0  0  0  0
   -0.8734    0.8409   -1.0595 C   0  0  0  0  0  0  0  0  0  0  0  0
   -1.8899   -0.1074   -0.9346 C   0  0  0  0  0  0  0  0  0  0  0  0
   -1.7252   -1.2002   -0.0852 C   0  0  0  0  0  0  0  0  0  0  0  0
   -0.5516   -1.3383    0.6577 C   0  0  0  0  0  0  0  0  0  0  0  0
    1.3898    1.6469   -0.5574 N   0  0  0  0  0  4  0  0  0  0  0  0
    2.6914    1.2084   -0.6405 O   0  0  0  0  0  1  0  0  0  0  0  0
    1.1314    2.8283   -0.8676 O   0  0  0  0  0  0  0  0  0  0  0  0
   -1.0086    1.6658   -1.7476 H   0  0  0  0  0  0  0  0  0  0  0  0
   -2.8026   -0.0005   -1.5066 H   0  0  0  0  0  0  0  0  0  0  0  0
   -2.5132   -1.9366    0.0067 H   0  0  0  0  0  0  0  0  0  0  0  0
   -0.4564   -2.1783    1.3340 H   0  0  0  0  0  0  0  0  0  0  0  0
  1  2  1  0
  2  3  2  0
  2  4  1  0
  4  5  2  0
  5  6  1  0
  6  7  2  0
  7  8  1  0
  8  9  2  0
  5 10  1  0
 10 11  1  0
 10 12  2  0
  9  4  1  0
  6 13  1  0
  7 14  1  0
  8 15  1  0
  9 16  1  0
M  CHG  4   1  -1   2   1  10   1  11  -1
M  END
