
     RDKit          3D

 20 19  0  0  0  0  0  0  0  0999 V2000
    3.4142    0.3637   -0.4516 C   0  0  0  0  0  0  0  0  0  0  0  0
    2.5492   -0.8558   -0.1547 C   0  0  0  0  0  0  0  0  0  0  0  0
    1.1888   -0.6044   -0.5014 O   0  0  0  0  0  0  0  0  0  0  0  0
    0.3318    0.1899    0.2690 C   0  0  0  0  0  0  0  0  0  0  0  0
    0.7220    0.6842    1.3627 O   0  0  0  0  0  0  0  0  0  0  0  0
   -1.0673    0.4382   -0.2081 C   0  0  0  0  0  0  0  0  0  0  0  0
   -1.3398    2.3544   -0.4041 Br  0  0  0  0  0  0  0  0  0  0  0  0
   -2.0856   -0.1749    0.7665 C   0  0  0  0  0  0  0  0  0  0  0  0
   -3.5042   -0.1654    0.1984 C   0  0  0  0  0  0  0  0  0  0  0  0
    4.4767    0.1309   -0.2286 H   0  0  0  0  0  0  0  0  0  0  0  0
    3.3235    0.6404   -1.5233 H   0  0  0  0  0  0  0  0  0  0  0  0
    3.0991    1.2242    0.1746 H   0  0  0  0  0  0  0  0  0  0  0  0
    2.9165   -1.7097   -0.7620 H   0  0  0  0  0  0  0  0  0  0  0  0
    2.6306   -1.1356    0.9182 H   0  0  0  0  0  0  0  0  0  0  0  0
   -1.1882   -0.0280   -1.2102 H   0  0  0  0  0  0  0  0  0  0  0  0
   -1.8060   -1.2309    0.9772 H   0  0  0  0  0  0  0  0  0  0  0  0
   -2.0729    0.3827    1.7285 H   0  0  0  0  0  0  0  0  0  0  0  0
   -4.1939   -0.6550    0.9179 H   0  0  0  0  0  0  0  0  0  0  0  0
   -3.5404   -0.7237   -0.7611 H   0  0  0  0  0  0  0  0  0  0  0  0
   -3.8540    0.8748    0.0317 H   0  0  0  0  0  0  0  0  0  0  0  0
  1  2  1  0
  2  3  1  0
  3  4  1  0
  4  5  2  0
  4  6  1  0
  6  7  1  0
  6  8  1  0
  8  9  1  0
  1 10  1  0
  1 11  1  0
  1 12  1  0
  2 13  1  0
  2 14  1  0
  6 15  1  0
  8 16  1  0
  8 17  1  0
  9 18  1  0
  9 19  1  0
  9 20  1  0
M  END
