
     RDKit          3D

 17 16  0  0  0  0  0  0  0  0999 V2000
   -2.2996    0.7187    0.5551 C   0  0  0  0  0  0  0  0  0  0  0  0
   -1.9926   -0.6602   -0.0176 C   0  0  0  0  0  0  0  0  0  0  0  0
   -0.5876   -0.9044   -0.0141 O   0  0  0  0  0  0  0  0  0  0  0  0
    0.2959   -0.3308   -0.9354 C   0  0  0  0  0  0  0  0  0  0  0  0
   -0.1290    0.4115   -1.8625 O   0  0  0  0  0  0  0  0  0  0  0  0
    1.7646   -0.5699   -0.7902 C   0  0  0  0  0  0  0  0  0  0  0  0
    2.3770    0.4481    0.1668 C   0  0  0  0  0  0  0  0  0  0  0  0
    4.2778    0.1246    0.3557 Br  0  0  0  0  0  0  0  0  0  0  0  0
   -1.8556    1.5110   -0.0829 H   0  0  0  0  0  0  0  0  0  0  0  0
   -3.3988    0.8693    0.5972 H   0  0  0  0  0  0  0  0  0  0  0  0
   -1.8848    0.8031    1.5818 H   0  0  0  0  0  0  0  0  0  0  0  0
   -2.4862   -1.4270    0.6158 H   0  0  0  0  0  0  0  0  0  0  0  0
   -2.3996   -0.7501   -1.0483 H   0  0  0  0  0  0  0  0  0  0  0  0
    1.9300   -1.5963   -0.3981 H   0  0  0  0  0  0  0  0  0  0  0  0
    2.2568   -0.4927   -1.7841 H   0  0  0  0  0  0  0  0  0  0  0  0
    2.2295    1.4780   -0.2232 H   0  0  0  0  0  0  0  0  0  0  0  0
    1.9022    0.3672    1.1682 H   0  0  0  0  0  0  0  0  0  0  0  0
  1  2  1  0
  2  3  1  0
  3  4  1  0
  4  5  2  0
  4  6  1  0
  6  7  1  0
  7  8  1  0
  1  9  1  0
  1 10  1  0
  1 11  1  0
  2 12  1  0
  2 13  1  0
  6 14  1  0
  6 15  1  0
  7 16  1  0
  7 17  1  0
M  END
