
     RDKit          3D

 17 16  0  0  0  0  0  0  0  0999 V2000
   -1.6487   -1.1363    0.5569 C   0  0  0  0  0  0  0  0  0  0  0  0
   -0.7355   -0.2469   -0.2949 C   0  0  0  0  0  0  0  0  0  0  0  0
   -1.2384    1.2026   -0.2782 C   0  0  0  0  0  0  0  0  0  0  0  0
    0.7150   -0.3341    0.2035 C   0  0  0  0  0  0  0  0  0  0  0  0
    1.5776    0.3865   -0.6727 O   0  0  0  0  0  0  0  0  0  0  0  0
    2.9550    0.4815   -0.4624 C   0  0  0  0  0  0  0  0  0  0  0  0
    3.5017   -0.0753    0.5271 O   0  0  0  0  0  0  0  0  0  0  0  0
   -1.3081   -2.1927    0.5094 H   0  0  0  0  0  0  0  0  0  0  0  0
   -1.6417   -0.8042    1.6175 H   0  0  0  0  0  0  0  0  0  0  0  0
   -2.6908   -1.0938    0.1743 H   0  0  0  0  0  0  0  0  0  0  0  0
   -0.7714   -0.6187   -1.3430 H   0  0  0  0  0  0  0  0  0  0  0  0
   -2.2831    1.2496   -0.6534 H   0  0  0  0  0  0  0  0  0  0  0  0
   -1.2092    1.6164    0.7528 H   0  0  0  0  0  0  0  0  0  0  0  0
   -0.6100    1.8377   -0.9379 H   0  0  0  0  0  0  0  0  0  0  0  0
    1.0356   -1.3990    0.2297 H   0  0  0  0  0  0  0  0  0  0  0  0
    0.7908    0.0846    1.2317 H   0  0  0  0  0  0  0  0  0  0  0  0
    3.5612    1.0421   -1.1604 H   0  0  0  0  0  0  0  0  0  0  0  0
  1  2  1  0
  2  3  1  0
  2  4  1  0
  4  5  1  0
  5  6  1  0
  6  7  2  0
  1  8  1  0
  1  9  1  0
  1 10  1  0
  2 11  1  0
  3 12  1  0
  3 13  1  0
  3 14  1  0
  4 15  1  0
  4 16  1  0
  6 17  1  0
M  END
