
     RDKit          3D

 10  9  0  0  0  0  0  0  0  0999 V2000
   -1.2964    0.4541    0.3936 C   0  0  0  0  0  0  0  0  0  0  0  0
   -0.1765   -0.5689    0.2689 C   0  0  0  0  0  0  0  0  0  0  0  0
    0.9473    0.0144   -0.4555 N   0  0  0  0  0  0  0  0  0  0  0  0
    2.1052    0.1088    0.0633 C   0  0  0  0  0  0  0  0  0  0  0  0
    3.5711    0.2283    0.7213 S   0  0  0  0  0  0  0  0  0  0  0  0
   -0.9414    1.3397    0.9624 H   0  0  0  0  0  0  0  0  0  0  0  0
   -2.1568    0.0032    0.9315 H   0  0  0  0  0  0  0  0  0  0  0  0
   -1.6327    0.7775   -0.6145 H   0  0  0  0  0  0  0  0  0  0  0  0
    0.1284   -0.9050    1.2863 H   0  0  0  0  0  0  0  0  0  0  0  0
   -0.5483   -1.4519   -0.2929 H   0  0  0  0  0  0  0  0  0  0  0  0
  1  2  1  0
  2  3  1  0
  3  4  2  0
  4  5  2  0
  1  6  1  0
  1  7  1  0
  1  8  1  0
  2  9  1  0
  2 10  1  0
M  END
