
     RDKit          3D

 24 23  0  0  0  0  0  0  0  0999 V2000
    2.8155   -1.5651    0.1730 C   0  0  0  0  0  0  0  0  0  0  0  0
    2.7141   -0.1700   -0.4434 C   0  0  0  0  0  0  0  0  0  0  0  0
    1.5326    0.6410    0.1107 C   0  0  0  0  0  0  0  0  0  0  0  0
    0.1741    0.1120   -0.3737 C   0  0  0  0  0  0  0  0  0  0  0  0
   -0.9715    1.0133    0.1134 C   0  0  0  0  0  0  0  0  0  0  0  0
   -2.3437    0.5962   -0.4553 C   0  0  0  0  0  0  0  0  0  0  0  0
   -2.8236   -0.7375    0.1233 C   0  0  0  0  0  0  0  0  0  0  0  0
   -3.2947    1.5817   -0.1462 O   0  0  0  0  0  0  0  0  0  0  0  0
    3.7513   -2.0531   -0.1720 H   0  0  0  0  0  0  0  0  0  0  0  0
    1.9607   -2.1982   -0.1426 H   0  0  0  0  0  0  0  0  0  0  0  0
    2.8396   -1.5000    1.2816 H   0  0  0  0  0  0  0  0  0  0  0  0
    3.6535    0.3791   -0.2159 H   0  0  0  0  0  0  0  0  0  0  0  0
    2.6351   -0.2557   -1.5490 H   0  0  0  0  0  0  0  0  0  0  0  0
    1.6514    1.6930   -0.2299 H   0  0  0  0  0  0  0  0  0  0  0  0
    1.5644    0.6415    1.2225 H   0  0  0  0  0  0  0  0  0  0  0  0
    0.1680    0.0755   -1.4851 H   0  0  0  0  0  0  0  0  0  0  0  0
    0.0236   -0.9143    0.0188 H   0  0  0  0  0  0  0  0  0  0  0  0
   -0.7624    2.0566   -0.2110 H   0  0  0  0  0  0  0  0  0  0  0  0
   -1.0070    1.0084    1.2253 H   0  0  0  0  0  0  0  0  0  0  0  0
   -2.2705    0.4859   -1.5630 H   0  0  0  0  0  0  0  0  0  0  0  0
   -2.8257   -0.7045    1.2338 H   0  0  0  0  0  0  0  0  0  0  0  0
   -2.1778   -1.5722   -0.2191 H   0  0  0  0  0  0  0  0  0  0  0  0
   -3.8573   -0.9455   -0.2260 H   0  0  0  0  0  0  0  0  0  0  0  0
   -3.1497    2.3318   -0.7807 H   0  0  0  0  0  0  0  0  0  0  0  0
  1  2  1  0
  2  3  1  0
  3  4  1  0
  4  5  1  0
  5  6  1  0
  6  7  1  0
  6  8  1  0
  1  9  1  0
  1 10  1  0
  1 11  1  0
  2 12  1  0
  2 13  1  0
  3 14  1  0
  3 15  1  0
  4 16  1  0
  4 17  1  0
  5 18  1  0
  5 19  1  0
  6 20  1  0
  7 21  1  0
  7 22  1  0
  7 23  1  0
  8 24  1  0
M  END
