
     RDKit          3D

  7  6  0  0  0  0  0  0  0  0999 V2000
    1.6874    0.0560   -0.9269 O   0  0  0  0  0  1  0  0  0  0  0  0
    0.8442    0.0198    0.1588 N   0  0  0  0  0  4  0  0  0  0  0  0
    1.2532    0.4246    1.2661 O   0  0  0  0  0  0  0  0  0  0  0  0
   -0.5727   -0.2469   -0.0378 C   0  0  0  0  0  0  0  0  0  0  0  0
   -1.4925    1.3968   -0.4851 Br  0  0  0  0  0  0  0  0  0  0  0  0
   -0.7070   -0.9765   -0.8639 H   0  0  0  0  0  0  0  0  0  0  0  0
   -1.0127   -0.6738    0.8886 H   0  0  0  0  0  0  0  0  0  0  0  0
  1  2  1  0
  2  3  2  0
  2  4  1  0
  4  5  1  0
  4  6  1  0
  4  7  1  0
M  CHG  2   1  -1   2   1
M  END
