
     RDKit          3D

 24 25  0  0  0  0  0  0  0  0999 V2000
    3.0560   -0.0395   -0.3716 C   0  0  0  0  0  0  0  0  0  0  0  0
    1.6041   -0.4318   -0.2522 C   0  0  0  0  0  0  0  0  0  0  0  0
    1.2598   -1.7820   -0.3988 C   0  0  0  0  0  0  0  0  0  0  0  0
   -0.0642   -2.1974   -0.2979 C   0  0  0  0  0  0  0  0  0  0  0  0
   -1.0906   -1.2773   -0.0470 C   0  0  0  0  0  0  0  0  0  0  0  0
   -2.5077   -1.7853    0.0521 C   0  0  0  0  0  0  0  0  0  0  0  0
   -0.7718    0.0966    0.1059 C   0  0  0  0  0  0  0  0  0  0  0  0
    0.5858    0.5225    0.0025 C   0  0  0  0  0  0  0  0  0  0  0  0
    0.8868    1.8938    0.1572 C   0  0  0  0  0  0  0  0  0  0  0  0
   -0.1234    2.8218    0.4072 C   0  0  0  0  0  0  0  0  0  0  0  0
   -1.4474    2.4064    0.5081 C   0  0  0  0  0  0  0  0  0  0  0  0
   -1.7739    1.0589    0.3598 C   0  0  0  0  0  0  0  0  0  0  0  0
    3.3988    0.4283    0.5752 H   0  0  0  0  0  0  0  0  0  0  0  0
    3.7069   -0.9173   -0.5716 H   0  0  0  0  0  0  0  0  0  0  0  0
    3.1849    0.6766   -1.2102 H   0  0  0  0  0  0  0  0  0  0  0  0
    2.0226   -2.5260   -0.5937 H   0  0  0  0  0  0  0  0  0  0  0  0
   -0.2870   -3.2507   -0.4178 H   0  0  0  0  0  0  0  0  0  0  0  0
   -2.9211   -1.5547    1.0565 H   0  0  0  0  0  0  0  0  0  0  0  0
   -2.5645   -2.8852   -0.0940 H   0  0  0  0  0  0  0  0  0  0  0  0
   -3.1350   -1.3064   -0.7289 H   0  0  0  0  0  0  0  0  0  0  0  0
    1.9007    2.2633    0.0871 H   0  0  0  0  0  0  0  0  0  0  0  0
    0.1226    3.8696    0.5235 H   0  0  0  0  0  0  0  0  0  0  0  0
   -2.2264    3.1325    0.7024 H   0  0  0  0  0  0  0  0  0  0  0  0
   -2.8161    0.7833    0.4463 H   0  0  0  0  0  0  0  0  0  0  0  0
  1  2  1  0
  2  3  2  0
  3  4  1  0
  4  5  2  0
  5  6  1  0
  5  7  1  0
  7  8  2  0
  8  9  1  0
  9 10  2  0
 10 11  1  0
 11 12  2  0
  8  2  1  0
 12  7  1  0
  1 13  1  0
  1 14  1  0
  1 15  1  0
  3 16  1  0
  4 17  1  0
  6 18  1  0
  6 19  1  0
  6 20  1  0
  9 21  1  0
 10 22  1  0
 11 23  1  0
 12 24  1  0
M  END
