
     RDKit          3D

 19 19  0  0  0  0  0  0  0  0999 V2000
    2.5234   -0.8496    0.1821 C   0  0  0  0  0  0  0  0  0  0  0  0
    1.2632   -0.0509   -0.0017 C   0  0  0  0  0  0  0  0  0  0  0  0
    0.0050   -0.6635    0.1644 C   0  0  0  0  0  0  0  0  0  0  0  0
   -0.0449   -2.0201    0.5012 O   0  0  0  0  0  0  0  0  0  0  0  0
   -1.1762    0.0965   -0.0106 C   0  0  0  0  0  0  0  0  0  0  0  0
   -1.0768    1.4562   -0.3488 C   0  0  0  0  0  0  0  0  0  0  0  0
    0.1718    2.0560   -0.5116 C   0  0  0  0  0  0  0  0  0  0  0  0
    1.3366    1.3090   -0.3396 C   0  0  0  0  0  0  0  0  0  0  0  0
   -2.5353   -0.5253    0.1589 C   0  0  0  0  0  0  0  0  0  0  0  0
    3.4301   -0.2291    0.0180 H   0  0  0  0  0  0  0  0  0  0  0  0
    2.5412   -1.6915   -0.5417 H   0  0  0  0  0  0  0  0  0  0  0  0
    2.5610   -1.2562    1.2146 H   0  0  0  0  0  0  0  0  0  0  0  0
   -0.9105   -2.5262    0.6365 H   0  0  0  0  0  0  0  0  0  0  0  0
   -1.9675    2.0566   -0.4875 H   0  0  0  0  0  0  0  0  0  0  0  0
    0.2370    3.1046   -0.7723 H   0  0  0  0  0  0  0  0  0  0  0  0
    2.2962    1.7937   -0.4706 H   0  0  0  0  0  0  0  0  0  0  0  0
   -2.6428   -0.9176    1.1919 H   0  0  0  0  0  0  0  0  0  0  0  0
   -2.6627   -1.3541   -0.5688 H   0  0  0  0  0  0  0  0  0  0  0  0
   -3.3485    0.2114   -0.0145 H   0  0  0  0  0  0  0  0  0  0  0  0
  1  2  1  0
  2  3  2  0
  3  4  1  0
  3  5  1  0
  5  6  2  0
  6  7  1  0
  7  8  2  0
  5  9  1  0
  8  2  1  0
  1 10  1  0
  1 11  1  0
  1 12  1  0
  4 13  1  0
  6 14  1  0
  7 15  1  0
  8 16  1  0
  9 17  1  0
  9 18  1  0
  9 19  1  0
M  END
