
     RDKit          3D

 14 14  0  0  0  0  0  0  0  0999 V2000
    0.7579    2.9587    0.3641 Br  0  0  0  0  0  0  0  0  0  0  0  0
    0.0492    1.1830    0.1976 C   0  0  0  0  0  0  0  0  0  0  0  0
   -1.3428    1.0387    0.2638 C   0  0  0  0  0  0  0  0  0  0  0  0
   -1.9348   -0.2127    0.0868 C   0  0  0  0  0  0  0  0  0  0  0  0
   -1.1404   -1.3305   -0.1660 C   0  0  0  0  0  0  0  0  0  0  0  0
    0.2486   -1.2014   -0.2347 C   0  0  0  0  0  0  0  0  0  0  0  0
    0.8641    0.0493   -0.0435 C   0  0  0  0  0  0  0  0  0  0  0  0
    2.2988    0.1419   -0.1053 N   0  0  0  0  0  4  0  0  0  0  0  0
    3.0173   -0.7816   -0.8296 O   0  0  0  0  0  1  0  0  0  0  0  0
    2.9184    0.9510    0.6147 O   0  0  0  0  0  0  0  0  0  0  0  0
   -1.9705    1.9025    0.4428 H   0  0  0  0  0  0  0  0  0  0  0  0
   -3.0112   -0.3144    0.1382 H   0  0  0  0  0  0  0  0  0  0  0  0
   -1.6011   -2.2998   -0.3071 H   0  0  0  0  0  0  0  0  0  0  0  0
    0.8464   -2.0844   -0.4215 H   0  0  0  0  0  0  0  0  0  0  0  0
  1  2  1  0
  2  3  2  0
  3  4  1  0
  4  5  2  0
  5  6  1  0
  6  7  2  0
  7  8  1  0
  8  9  1  0
  8 10  2  0
  7  2  1  0
  3 11  1  0
  4 12  1  0
  5 13  1  0
  6 14  1  0
M  CHG  2   8   1   9  -1
M  END
