
     RDKit          3D

 17 17  0  0  0  0  0  0  0  0999 V2000
   -2.5993    1.8989    0.1824 O   0  0  0  0  0  0  0  0  0  0  0  0
   -1.5666    0.9650    0.1357 C   0  0  0  0  0  0  0  0  0  0  0  0
   -1.8251   -0.3935    0.3402 C   0  0  0  0  0  0  0  0  0  0  0  0
   -0.7845   -1.3215    0.2812 C   0  0  0  0  0  0  0  0  0  0  0  0
    0.5329   -0.9072    0.0163 C   0  0  0  0  0  0  0  0  0  0  0  0
    0.8032    0.4747   -0.1541 C   0  0  0  0  0  0  0  0  0  0  0  0
   -0.2601    1.3935   -0.1111 C   0  0  0  0  0  0  0  0  0  0  0  0
    2.1443    0.9662   -0.3151 N   0  0  0  0  0  4  0  0  0  0  0  0
    2.3727    2.1272   -1.0175 O   0  0  0  0  0  1  0  0  0  0  0  0
    3.0824    0.4629    0.3369 O   0  0  0  0  0  0  0  0  0  0  0  0
    1.5643   -1.8969   -0.1352 N   0  0  0  0  0  4  0  0  0  0  0  0
    2.5044   -1.7690   -1.1317 O   0  0  0  0  0  1  0  0  0  0  0  0
    1.5057   -2.9679    0.5037 O   0  0  0  0  0  0  0  0  0  0  0  0
   -3.5572    1.6209    0.3615 H   0  0  0  0  0  0  0  0  0  0  0  0
   -2.8346   -0.7333    0.5339 H   0  0  0  0  0  0  0  0  0  0  0  0
   -1.0121   -2.3719    0.4129 H   0  0  0  0  0  0  0  0  0  0  0  0
   -0.0705    2.4519   -0.2399 H   0  0  0  0  0  0  0  0  0  0  0  0
  1  2  1  0
  2  3  2  0
  3  4  1  0
  4  5  2  0
  5  6  1  0
  6  7  2  0
  6  8  1  0
  8  9  1  0
  8 10  2  0
  5 11  1  0
 11 12  1  0
 11 13  2  0
  7  2  1  0
  1 14  1  0
  3 15  1  0
  4 16  1  0
  7 17  1  0
M  CHG  4   8   1   9  -1  11   1  12  -1
M  END
