
     RDKit          3D

 26 26  0  0  0  0  0  0  0  0999 V2000
   -3.2528    0.8643   -0.3288 C   0  0  0  0  0  0  0  0  0  0  0  0
   -2.2049    0.2340   -1.2420 C   0  0  0  0  0  0  0  0  0  0  0  0
   -1.0943   -0.4000   -0.4343 C   0  0  0  0  0  0  0  0  0  0  0  0
    0.0290    0.3383    0.0303 C   0  0  0  0  0  0  0  0  0  0  0  0
    0.1495    1.7428   -0.2624 N   0  0  0  0  0  0  0  0  0  0  0  0
    1.0319   -0.3277    0.7877 C   0  0  0  0  0  0  0  0  0  0  0  0
    0.9048   -1.7019    1.0477 C   0  0  0  0  0  0  0  0  0  0  0  0
   -0.2068   -2.4103    0.6032 C   0  0  0  0  0  0  0  0  0  0  0  0
   -1.2022   -1.7652   -0.1233 C   0  0  0  0  0  0  0  0  0  0  0  0
    2.2579    0.3840    1.3148 C   0  0  0  0  0  0  0  0  0  0  0  0
    3.3630    0.4200    0.2628 C   0  0  0  0  0  0  0  0  0  0  0  0
   -4.0498    1.3315   -0.9447 H   0  0  0  0  0  0  0  0  0  0  0  0
   -2.7965    1.6460    0.3138 H   0  0  0  0  0  0  0  0  0  0  0  0
   -3.7135    0.0873    0.3181 H   0  0  0  0  0  0  0  0  0  0  0  0
   -2.7040   -0.5324   -1.8749 H   0  0  0  0  0  0  0  0  0  0  0  0
   -1.8039    0.9895   -1.9488 H   0  0  0  0  0  0  0  0  0  0  0  0
   -0.6592    2.3142   -0.5869 H   0  0  0  0  0  0  0  0  0  0  0  0
    1.0512    2.2556   -0.1640 H   0  0  0  0  0  0  0  0  0  0  0  0
    1.6682   -2.2278    1.6082 H   0  0  0  0  0  0  0  0  0  0  0  0
   -0.2974   -3.4662    0.8234 H   0  0  0  0  0  0  0  0  0  0  0  0
   -2.0599   -2.3379   -0.4548 H   0  0  0  0  0  0  0  0  0  0  0  0
    2.0100    1.4125    1.6499 H   0  0  0  0  0  0  0  0  0  0  0  0
    2.6464   -0.1386    2.2165 H   0  0  0  0  0  0  0  0  0  0  0  0
    4.2461    0.9562    0.6695 H   0  0  0  0  0  0  0  0  0  0  0  0
    3.6683   -0.6137   -0.0066 H   0  0  0  0  0  0  0  0  0  0  0  0
    3.0188    0.9457   -0.6524 H   0  0  0  0  0  0  0  0  0  0  0  0
  1  2  1  0
  2  3  1  0
  3  4  2  0
  4  5  1  0
  4  6  1  0
  6  7  2  0
  7  8  1  0
  8  9  2  0
  6 10  1  0
 10 11  1  0
  9  3  1  0
  1 12  1  0
  1 13  1  0
  1 14  1  0
  2 15  1  0
  2 16  1  0
  5 17  1  0
  5 18  1  0
  7 19  1  0
  8 20  1  0
  9 21  1  0
 10 22  1  0
 10 23  1  0
 11 24  1  0
 11 25  1  0
 11 26  1  0
M  END
