
     RDKit          3D

 13 13  0  0  0  0  0  0  0  0999 V2000
   -2.0197   -1.5075    0.1177 O   0  0  0  0  0  0  0  0  0  0  0  0
   -0.8931   -0.6868    0.0517 C   0  0  0  0  0  0  0  0  0  0  0  0
    0.3690   -1.2851   -0.0508 C   0  0  0  0  0  0  0  0  0  0  0  0
    1.5225   -0.4968   -0.1195 C   0  0  0  0  0  0  0  0  0  0  0  0
    1.4181    0.8968   -0.0857 C   0  0  0  0  0  0  0  0  0  0  0  0
    0.1628    1.5021    0.0165 C   0  0  0  0  0  0  0  0  0  0  0  0
   -0.9961    0.7188    0.0856 C   0  0  0  0  0  0  0  0  0  0  0  0
   -2.5530    1.5260    0.2133 Cl  0  0  0  0  0  0  0  0  0  0  0  0
    3.0986   -1.2560   -0.2477 Cl  0  0  0  0  0  0  0  0  0  0  0  0
   -2.9599   -1.1405    0.1926 H   0  0  0  0  0  0  0  0  0  0  0  0
    0.4512   -2.3645   -0.0771 H   0  0  0  0  0  0  0  0  0  0  0  0
    2.3078    1.5113   -0.1385 H   0  0  0  0  0  0  0  0  0  0  0  0
    0.0917    2.5822    0.0419 H   0  0  0  0  0  0  0  0  0  0  0  0
  1  2  1  0
  2  3  2  0
  3  4  1  0
  4  5  2  0
  5  6  1  0
  6  7  2  0
  7  8  1  0
  4  9  1  0
  7  2  1  0
  1 10  1  0
  3 11  1  0
  5 12  1  0
  6 13  1  0
M  END
