
     RDKit          3D

 25 25  0  0  0  0  0  0  0  0999 V2000
   -1.4839    1.5957   -0.6887 C   0  0  0  0  0  0  0  0  0  0  0  0
   -1.2477    0.1585   -0.1648 C   0  0  0  0  0  0  0  0  0  0  0  0
   -2.0284    0.0084    1.1591 C   0  0  0  0  0  0  0  0  0  0  0  0
   -1.8206   -0.8215   -1.2117 C   0  0  0  0  0  0  0  0  0  0  0  0
    0.2423   -0.1609    0.0776 C   0  0  0  0  0  0  0  0  0  0  0  0
    1.2765    0.7777   -0.1604 C   0  0  0  0  0  0  0  0  0  0  0  0
    2.6192    0.4461    0.0733 C   0  0  0  0  0  0  0  0  0  0  0  0
    2.9516   -0.8232    0.5469 C   0  0  0  0  0  0  0  0  0  0  0  0
    1.9511   -1.7623    0.7879 C   0  0  0  0  0  0  0  0  0  0  0  0
    0.6124   -1.4383    0.5572 C   0  0  0  0  0  0  0  0  0  0  0  0
    3.6311    1.3744   -0.1630 O   0  0  0  0  0  0  0  0  0  0  0  0
   -2.5679    1.7836   -0.8495 H   0  0  0  0  0  0  0  0  0  0  0  0
   -0.9713    1.7518   -1.6626 H   0  0  0  0  0  0  0  0  0  0  0  0
   -1.1208    2.3491    0.0436 H   0  0  0  0  0  0  0  0  0  0  0  0
   -1.6010    0.6771    1.9374 H   0  0  0  0  0  0  0  0  0  0  0  0
   -1.9938   -1.0343    1.5380 H   0  0  0  0  0  0  0  0  0  0  0  0
   -3.0984    0.2752    1.0185 H   0  0  0  0  0  0  0  0  0  0  0  0
   -2.8835   -0.5836   -1.4347 H   0  0  0  0  0  0  0  0  0  0  0  0
   -1.2420   -0.7569   -2.1586 H   0  0  0  0  0  0  0  0  0  0  0  0
   -1.7843   -1.8710   -0.8520 H   0  0  0  0  0  0  0  0  0  0  0  0
    1.0661    1.7712   -0.5266 H   0  0  0  0  0  0  0  0  0  0  0  0
    3.9872   -1.0816    0.7281 H   0  0  0  0  0  0  0  0  0  0  0  0
    2.2128   -2.7463    1.1553 H   0  0  0  0  0  0  0  0  0  0  0  0
   -0.1342   -2.1948    0.7566 H   0  0  0  0  0  0  0  0  0  0  0  0
    3.4276    2.3057   -0.5068 H   0  0  0  0  0  0  0  0  0  0  0  0
  1  2  1  0
  2  3  1  0
  2  4  1  0
  2  5  1  0
  5  6  2  0
  6  7  1  0
  7  8  2  0
  8  9  1  0
  9 10  2  0
  7 11  1  0
 10  5  1  0
  1 12  1  0
  1 13  1  0
  1 14  1  0
  3 15  1  0
  3 16  1  0
  3 17  1  0
  4 18  1  0
  4 19  1  0
  4 20  1  0
  6 21  1  0
  8 22  1  0
  9 23  1  0
 10 24  1  0
 11 25  1  0
M  END
