
     RDKit          3D

 14 14  0  0  0  0  0  0  0  0999 V2000
   -2.9432   -1.9692    0.2695 Br  0  0  0  0  0  0  0  0  0  0  0  0
   -1.5077   -0.7252    0.0690 C   0  0  0  0  0  0  0  0  0  0  0  0
   -0.1866   -1.1432    0.2652 C   0  0  0  0  0  0  0  0  0  0  0  0
    0.8787   -0.2335    0.1197 C   0  0  0  0  0  0  0  0  0  0  0  0
    0.5925    1.0999   -0.2257 C   0  0  0  0  0  0  0  0  0  0  0  0
   -0.7289    1.5130   -0.4207 C   0  0  0  0  0  0  0  0  0  0  0  0
   -1.7776    0.6026   -0.2738 C   0  0  0  0  0  0  0  0  0  0  0  0
    2.2396   -0.6574    0.3202 N   0  0  0  0  0  4  0  0  0  0  0  0
    3.2780    0.2343    0.1771 O   0  0  0  0  0  1  0  0  0  0  0  0
    2.5000   -1.8395    0.6268 O   0  0  0  0  0  0  0  0  0  0  0  0
    0.0049   -2.1750    0.5303 H   0  0  0  0  0  0  0  0  0  0  0  0
    1.3887    1.8231   -0.3450 H   0  0  0  0  0  0  0  0  0  0  0  0
   -0.9399    2.5409   -0.6863 H   0  0  0  0  0  0  0  0  0  0  0  0
   -2.7983    0.9291   -0.4263 H   0  0  0  0  0  0  0  0  0  0  0  0
  1  2  1  0
  2  3  2  0
  3  4  1  0
  4  5  2  0
  5  6  1  0
  6  7  2  0
  4  8  1  0
  8  9  1  0
  8 10  2  0
  7  2  1  0
  3 11  1  0
  5 12  1  0
  6 13  1  0
  7 14  1  0
M  CHG  2   8   1   9  -1
M  END
