
     RDKit          3D

 19 19  0  0  0  0  0  0  0  0999 V2000
    2.5089   -1.0973   -0.7301 C   0  0  0  0  0  0  0  0  0  0  0  0
    1.3754   -0.2234   -0.2809 C   0  0  0  0  0  0  0  0  0  0  0  0
    1.6211    1.0937    0.1358 C   0  0  0  0  0  0  0  0  0  0  0  0
    0.5620    1.9164    0.5279 C   0  0  0  0  0  0  0  0  0  0  0  0
   -0.7501    1.4377    0.4902 C   0  0  0  0  0  0  0  0  0  0  0  0
   -1.0142    0.1340    0.0421 C   0  0  0  0  0  0  0  0  0  0  0  0
    0.0543   -0.6959   -0.3352 C   0  0  0  0  0  0  0  0  0  0  0  0
   -2.4211   -0.3899    0.0267 C   0  0  0  0  0  0  0  0  0  0  0  0
   -2.7057   -0.9879    1.2598 O   0  0  0  0  0  0  0  0  0  0  0  0
    2.2867   -2.1653   -0.5202 H   0  0  0  0  0  0  0  0  0  0  0  0
    2.6649   -0.9675   -1.8214 H   0  0  0  0  0  0  0  0  0  0  0  0
    3.4458   -0.8308   -0.1959 H   0  0  0  0  0  0  0  0  0  0  0  0
    2.6320    1.4815    0.1624 H   0  0  0  0  0  0  0  0  0  0  0  0
    0.7585    2.9271    0.8615 H   0  0  0  0  0  0  0  0  0  0  0  0
   -1.5599    2.0844    0.8050 H   0  0  0  0  0  0  0  0  0  0  0  0
   -0.1421   -1.7078   -0.6699 H   0  0  0  0  0  0  0  0  0  0  0  0
   -2.5407   -1.1353   -0.7915 H   0  0  0  0  0  0  0  0  0  0  0  0
   -3.1358    0.4422   -0.1637 H   0  0  0  0  0  0  0  0  0  0  0  0
   -3.6402   -1.3160    1.1974 H   0  0  0  0  0  0  0  0  0  0  0  0
  1  2  1  0
  2  3  2  0
  3  4  1  0
  4  5  2  0
  5  6  1  0
  6  7  2  0
  6  8  1  0
  8  9  1  0
  7  2  1  0
  1 10  1  0
  1 11  1  0
  1 12  1  0
  3 13  1  0
  4 14  1  0
  5 15  1  0
  7 16  1  0
  8 17  1  0
  8 18  1  0
  9 19  1  0
M  END
