
     RDKit          3D

 27 26  0  0  0  0  0  0  0  0999 V2000
    3.8807    0.8101   -0.6090 C   0  0  0  0  0  0  0  0  0  0  0  0
    2.4886    0.6369   -0.0083 C   0  0  0  0  0  0  0  0  0  0  0  0
    2.0131   -0.8186   -0.1263 C   0  0  0  0  0  0  0  0  0  0  0  0
    0.6750   -1.0640    0.5890 C   0  0  0  0  0  0  0  0  0  0  0  0
   -0.5138   -0.4143   -0.1384 C   0  0  0  0  0  0  0  0  0  0  0  0
   -1.8583   -0.7987    0.5211 C   0  0  0  0  0  0  0  0  0  0  0  0
   -1.9442   -0.3355    1.8474 O   0  0  0  0  0  0  0  0  0  0  0  0
   -3.0827   -0.3466   -0.3037 C   0  0  0  0  0  0  0  0  0  0  0  0
   -3.2267    1.1709   -0.4407 C   0  0  0  0  0  0  0  0  0  0  0  0
    3.8742    0.5308   -1.6842 H   0  0  0  0  0  0  0  0  0  0  0  0
    4.1949    1.8714   -0.5196 H   0  0  0  0  0  0  0  0  0  0  0  0
    4.6162    0.1762   -0.0694 H   0  0  0  0  0  0  0  0  0  0  0  0
    1.7899    1.3119   -0.5460 H   0  0  0  0  0  0  0  0  0  0  0  0
    2.5199    0.9384    1.0613 H   0  0  0  0  0  0  0  0  0  0  0  0
    1.9259   -1.1032   -1.1979 H   0  0  0  0  0  0  0  0  0  0  0  0
    2.7752   -1.4831    0.3371 H   0  0  0  0  0  0  0  0  0  0  0  0
    0.7341   -0.6880    1.6338 H   0  0  0  0  0  0  0  0  0  0  0  0
    0.5102   -2.1628    0.6362 H   0  0  0  0  0  0  0  0  0  0  0  0
   -0.5199   -0.7527   -1.1979 H   0  0  0  0  0  0  0  0  0  0  0  0
   -0.3944    0.6886   -0.1266 H   0  0  0  0  0  0  0  0  0  0  0  0
   -1.9051   -1.9094    0.5576 H   0  0  0  0  0  0  0  0  0  0  0  0
   -1.6942    0.6246    1.8551 H   0  0  0  0  0  0  0  0  0  0  0  0
   -4.0022   -0.7440    0.1786 H   0  0  0  0  0  0  0  0  0  0  0  0
   -3.0253   -0.7935   -1.3202 H   0  0  0  0  0  0  0  0  0  0  0  0
   -3.3347    1.6503    0.5541 H   0  0  0  0  0  0  0  0  0  0  0  0
   -4.1390    1.3983   -1.0314 H   0  0  0  0  0  0  0  0  0  0  0  0
   -2.3573    1.6060   -0.9748 H   0  0  0  0  0  0  0  0  0  0  0  0
  1  2  1  0
  2  3  1  0
  3  4  1  0
  4  5  1  0
  5  6  1  0
  6  7  1  0
  6  8  1  0
  8  9  1  0
  1 10  1  0
  1 11  1  0
  1 12  1  0
  2 13  1  0
  2 14  1  0
  3 15  1  0
  3 16  1  0
  4 17  1  0
  4 18  1  0
  5 19  1  0
  5 20  1  0
  6 21  1  0
  7 22  1  0
  8 23  1  0
  8 24  1  0
  9 25  1  0
  9 26  1  0
  9 27  1  0
M  END
