
     RDKit          3D

 23 22  0  0  0  0  0  0  0  0999 V2000
    3.9054   -0.2909    0.2272 C   0  0  0  0  0  0  0  0  0  0  0  0
    2.7779    0.2404   -0.6530 C   0  0  0  0  0  0  0  0  0  0  0  0
    1.4392    0.2252    0.0931 C   0  0  0  0  0  0  0  0  0  0  0  0
    0.3093    0.7581   -0.7925 C   0  0  0  0  0  0  0  0  0  0  0  0
   -0.9212    0.7839   -0.0718 O   0  0  0  0  0  0  0  0  0  0  0  0
   -1.6785   -0.3611    0.2007 C   0  0  0  0  0  0  0  0  0  0  0  0
   -1.3305   -1.4876   -0.2476 O   0  0  0  0  0  0  0  0  0  0  0  0
   -2.9440   -0.2343    0.9868 C   0  0  0  0  0  0  0  0  0  0  0  0
   -4.1153    0.0909    0.0677 C   0  0  0  0  0  0  0  0  0  0  0  0
    3.6974   -1.3393    0.5299 H   0  0  0  0  0  0  0  0  0  0  0  0
    4.8608   -0.2676   -0.3382 H   0  0  0  0  0  0  0  0  0  0  0  0
    4.0150    0.3388    1.1358 H   0  0  0  0  0  0  0  0  0  0  0  0
    2.7055   -0.3915   -1.5652 H   0  0  0  0  0  0  0  0  0  0  0  0
    3.0232    1.2797   -0.9629 H   0  0  0  0  0  0  0  0  0  0  0  0
    1.2043   -0.8148    0.4068 H   0  0  0  0  0  0  0  0  0  0  0  0
    1.5135    0.8587    1.0042 H   0  0  0  0  0  0  0  0  0  0  0  0
    0.2023    0.1376   -1.7094 H   0  0  0  0  0  0  0  0  0  0  0  0
    0.5499    1.7963   -1.1058 H   0  0  0  0  0  0  0  0  0  0  0  0
   -3.1492   -1.1838    1.5270 H   0  0  0  0  0  0  0  0  0  0  0  0
   -2.8301    0.5749    1.7396 H   0  0  0  0  0  0  0  0  0  0  0  0
   -3.9354    1.0512   -0.4616 H   0  0  0  0  0  0  0  0  0  0  0  0
   -5.0441    0.1850    0.6687 H   0  0  0  0  0  0  0  0  0  0  0  0
   -4.2557   -0.7194   -0.6795 H   0  0  0  0  0  0  0  0  0  0  0  0
  1  2  1  0
  2  3  1  0
  3  4  1  0
  4  5  1  0
  5  6  1  0
  6  7  2  0
  6  8  1  0
  8  9  1  0
  1 10  1  0
  1 11  1  0
  1 12  1  0
  2 13  1  0
  2 14  1  0
  3 15  1  0
  3 16  1  0
  4 17  1  0
  4 18  1  0
  8 19  1  0
  8 20  1  0
  9 21  1  0
  9 22  1  0
  9 23  1  0
M  END
