
     RDKit          3D

 16 15  0  0  0  0  0  0  0  0999 V2000
   -0.5517    0.0383    1.4141 C   0  0  0  0  0  0  0  0  0  0  0  0
   -0.4390    0.1879   -0.1105 C   0  0  0  0  0  0  0  0  0  0  0  0
   -1.4463   -0.7371   -0.8042 C   0  0  0  0  0  0  0  0  0  0  0  0
    0.9907   -0.1175   -0.6036 C   0  0  0  0  0  0  0  0  0  0  0  0
    1.9878    0.8861   -0.1011 C   0  0  0  0  0  0  0  0  0  0  0  0
    1.9200    2.0542   -0.4493 O   0  0  0  0  0  0  0  0  0  0  0  0
    0.1255    0.7539    1.9261 H   0  0  0  0  0  0  0  0  0  0  0  0
   -0.2866   -0.9944    1.7277 H   0  0  0  0  0  0  0  0  0  0  0  0
   -1.5894    0.2575    1.7449 H   0  0  0  0  0  0  0  0  0  0  0  0
   -0.7002    1.2353   -0.3814 H   0  0  0  0  0  0  0  0  0  0  0  0
   -1.4005   -0.5974   -1.9054 H   0  0  0  0  0  0  0  0  0  0  0  0
   -1.2291   -1.8012   -0.5681 H   0  0  0  0  0  0  0  0  0  0  0  0
   -2.4792   -0.4991   -0.4713 H   0  0  0  0  0  0  0  0  0  0  0  0
    1.2968   -1.1331   -0.2696 H   0  0  0  0  0  0  0  0  0  0  0  0
    1.0181   -0.1050   -1.7151 H   0  0  0  0  0  0  0  0  0  0  0  0
    2.7829    0.5716    0.5669 H   0  0  0  0  0  0  0  0  0  0  0  0
  1  2  1  0
  2  3  1  0
  2  4  1  0
  4  5  1  0
  5  6  2  0
  1  7  1  0
  1  8  1  0
  1  9  1  0
  2 10  1  0
  3 11  1  0
  3 12  1  0
  3 13  1  0
  4 14  1  0
  4 15  1  0
  5 16  1  0
M  END
