
     RDKit          3D

 17 17  0  0  0  0  0  0  0  0999 V2000
   -1.8325    0.8411    0.6770 C   0  0  0  0  0  0  0  0  0  0  0  0
   -0.4810    0.4653    0.1189 C   0  0  0  0  0  0  0  0  0  0  0  0
   -0.0169   -0.8762    0.1805 C   0  0  0  0  0  0  0  0  0  0  0  0
    1.2119   -1.2085   -0.4154 C   0  0  0  0  0  0  0  0  0  0  0  0
    1.9977   -0.2296   -1.0202 C   0  0  0  0  0  0  0  0  0  0  0  0
    1.5737    1.0965   -1.0337 C   0  0  0  0  0  0  0  0  0  0  0  0
    0.3472    1.4536   -0.4656 C   0  0  0  0  0  0  0  0  0  0  0  0
   -0.1057    3.1563   -0.5013 Cl  0  0  0  0  0  0  0  0  0  0  0  0
   -0.7669   -1.9041    0.8519 N   0  0  0  0  0  4  0  0  0  0  0  0
   -1.3654   -1.6491    2.0643 O   0  0  0  0  0  1  0  0  0  0  0  0
   -0.7248   -3.0815    0.4386 O   0  0  0  0  0  0  0  0  0  0  0  0
   -1.7361    1.0873    1.7550 H   0  0  0  0  0  0  0  0  0  0  0  0
   -2.2684    1.7108    0.1448 H   0  0  0  0  0  0  0  0  0  0  0  0
   -2.5592    0.0124    0.5468 H   0  0  0  0  0  0  0  0  0  0  0  0
    1.5758   -2.2280   -0.3881 H   0  0  0  0  0  0  0  0  0  0  0  0
    2.9477   -0.4975   -1.4647 H   0  0  0  0  0  0  0  0  0  0  0  0
    2.2028    1.8512   -1.4888 H   0  0  0  0  0  0  0  0  0  0  0  0
  1  2  1  0
  2  3  2  0
  3  4  1  0
  4  5  2  0
  5  6  1  0
  6  7  2  0
  7  8  1  0
  3  9  1  0
  9 10  1  0
  9 11  2  0
  7  2  1  0
  1 12  1  0
  1 13  1  0
  1 14  1  0
  4 15  1  0
  5 16  1  0
  6 17  1  0
M  CHG  2   9   1  10  -1
M  END
