
     RDKit          3D

 15 14  0  0  0  0  0  0  0  0999 V2000
    2.5560    0.4974   -0.2229 C   0  0  0  0  0  0  0  0  0  0  0  0
    1.3226   -0.3173   -0.0294 C   0  0  0  0  0  0  0  0  0  0  0  0
    1.1830   -1.3985   -0.6634 O   0  0  0  0  0  0  0  0  0  0  0  0
    0.3141    0.1500    0.8208 O   0  0  0  0  0  0  0  0  0  0  0  0
   -0.9156   -0.5421    1.0295 C   0  0  0  0  0  0  0  0  0  0  0  0
   -1.7802   -0.4725   -0.1969 C   0  0  0  0  0  0  0  0  0  0  0  0
   -2.2309    0.6942   -0.6649 C   0  0  0  0  0  0  0  0  0  0  0  0
    2.7109    1.1645    0.6508 H   0  0  0  0  0  0  0  0  0  0  0  0
    2.4507    1.1152   -1.1387 H   0  0  0  0  0  0  0  0  0  0  0  0
    3.4394   -0.1672   -0.3276 H   0  0  0  0  0  0  0  0  0  0  0  0
   -1.4524   -0.0757    1.8825 H   0  0  0  0  0  0  0  0  0  0  0  0
   -0.7133   -1.6030    1.2918 H   0  0  0  0  0  0  0  0  0  0  0  0
   -2.0478   -1.3916   -0.7097 H   0  0  0  0  0  0  0  0  0  0  0  0
   -2.8558    0.7188   -1.5517 H   0  0  0  0  0  0  0  0  0  0  0  0
   -1.9806    1.6279   -0.1702 H   0  0  0  0  0  0  0  0  0  0  0  0
  1  2  1  0
  2  3  2  0
  2  4  1  0
  4  5  1  0
  5  6  1  0
  6  7  2  3
  1  8  1  0
  1  9  1  0
  1 10  1  0
  5 11  1  0
  5 12  1  0
  6 13  1  0
  7 14  1  0
  7 15  1  0
M  END
