
     RDKit          3D

 16 15  0  0  0  0  0  0  0  0999 V2000
   -2.0816    1.0371   -0.0418 C   0  0  0  0  0  0  0  0  0  0  0  0
   -0.6131    0.6423   -0.1669 C   0  0  0  0  0  0  0  0  0  0  0  0
   -0.4001   -0.8269    0.2223 C   0  0  0  0  0  0  0  0  0  0  0  0
    1.0619   -1.2523    0.0627 C   0  0  0  0  0  0  0  0  0  0  0  0
    1.9021   -0.5637    1.0378 N   0  0  0  0  0  0  0  0  0  0  0  0
    2.8724    0.1785    0.6824 C   0  0  0  0  0  0  0  0  0  0  0  0
    4.0994    1.1197    0.2306 S   0  0  0  0  0  0  0  0  0  0  0  0
   -2.4282    0.9067    1.0055 H   0  0  0  0  0  0  0  0  0  0  0  0
   -2.2055    2.1032   -0.3267 H   0  0  0  0  0  0  0  0  0  0  0  0
   -2.7076    0.4145   -0.7160 H   0  0  0  0  0  0  0  0  0  0  0  0
   -0.2858    0.8037   -1.2171 H   0  0  0  0  0  0  0  0  0  0  0  0
   -0.0096    1.3007    0.4948 H   0  0  0  0  0  0  0  0  0  0  0  0
   -1.0275   -1.4728   -0.4302 H   0  0  0  0  0  0  0  0  0  0  0  0
   -0.7178   -0.9892    1.2759 H   0  0  0  0  0  0  0  0  0  0  0  0
    1.1384   -2.3458    0.2419 H   0  0  0  0  0  0  0  0  0  0  0  0
    1.4026   -1.0557   -0.9800 H   0  0  0  0  0  0  0  0  0  0  0  0
  1  2  1  0
  2  3  1  0
  3  4  1  0
  4  5  1  0
  5  6  2  0
  6  7  2  0
  1  8  1  0
  1  9  1  0
  1 10  1  0
  2 11  1  0
  2 12  1  0
  3 13  1  0
  3 14  1  0
  4 15  1  0
  4 16  1  0
M  END
