
     RDKit          3D

 19 18  0  0  0  0  0  0  0  0999 V2000
    2.1294   -0.3546   -0.1514 C   0  0  0  0  0  0  0  0  0  0  0  0
    0.9760    0.6520   -0.0945 C   0  0  0  0  0  0  0  0  0  0  0  0
   -0.4205    0.0063    0.1238 C   0  0  0  0  0  0  0  0  0  0  0  0
   -1.4754    1.1288    0.2288 C   0  0  0  0  0  0  0  0  0  0  0  0
   -0.7875   -0.9116   -1.0600 C   0  0  0  0  0  0  0  0  0  0  0  0
   -0.4142   -0.7847    1.3624 N   0  0  0  0  0  0  0  0  0  0  0  0
    2.1426   -0.9948    0.7553 H   0  0  0  0  0  0  0  0  0  0  0  0
    3.0929    0.1950   -0.2027 H   0  0  0  0  0  0  0  0  0  0  0  0
    2.0532   -0.9920   -1.0563 H   0  0  0  0  0  0  0  0  0  0  0  0
    0.9763    1.2419   -1.0377 H   0  0  0  0  0  0  0  0  0  0  0  0
    1.1851    1.3626    0.7356 H   0  0  0  0  0  0  0  0  0  0  0  0
   -1.5005    1.7315   -0.7049 H   0  0  0  0  0  0  0  0  0  0  0  0
   -1.2420    1.8071    1.0775 H   0  0  0  0  0  0  0  0  0  0  0  0
   -2.4877    0.7020    0.3969 H   0  0  0  0  0  0  0  0  0  0  0  0
   -0.1295   -1.8051   -1.0873 H   0  0  0  0  0  0  0  0  0  0  0  0
   -1.8337   -1.2737   -0.9624 H   0  0  0  0  0  0  0  0  0  0  0  0
   -0.6948   -0.3669   -2.0243 H   0  0  0  0  0  0  0  0  0  0  0  0
   -0.2022   -0.1591    2.1741 H   0  0  0  0  0  0  0  0  0  0  0  0
   -1.3674   -1.1846    1.5272 H   0  0  0  0  0  0  0  0  0  0  0  0
  1  2  1  0
  2  3  1  0
  3  4  1  0
  3  5  1  0
  3  6  1  0
  1  7  1  0
  1  8  1  0
  1  9  1  0
  2 10  1  0
  2 11  1  0
  4 12  1  0
  4 13  1  0
  4 14  1  0
  5 15  1  0
  5 16  1  0
  5 17  1  0
  6 18  1  0
  6 19  1  0
M  END
