
     RDKit          3D

  9  8  0  0  0  0  0  0  0  0999 V2000
   -1.4834    0.0102   -0.0690 N   0  0  0  0  0  0  0  0  0  0  0  0
   -0.1725   -0.3479   -0.5105 C   0  0  0  0  0  0  0  0  0  0  0  0
   -0.0450   -1.0669   -1.5382 O   0  0  0  0  0  0  0  0  0  0  0  0
    1.0398    0.1292    0.2447 C   0  0  0  0  0  0  0  0  0  0  0  0
    2.5576   -0.4480   -0.5005 Cl  0  0  0  0  0  0  0  0  0  0  0  0
    0.9768   -0.4705    1.9208 Cl  0  0  0  0  0  0  0  0  0  0  0  0
    1.0701    1.9101    0.2668 Cl  0  0  0  0  0  0  0  0  0  0  0  0
   -1.6196    0.6044    0.7786 H   0  0  0  0  0  0  0  0  0  0  0  0
   -2.3238   -0.3207   -0.5928 H   0  0  0  0  0  0  0  0  0  0  0  0
  1  2  1  0
  2  3  2  0
  2  4  1  0
  4  5  1  0
  4  6  1  0
  4  7  1  0
  1  8  1  0
  1  9  1  0
M  END
