
     RDKit          3D

  9  8  0  0  0  0  0  0  0  0999 V2000
   -1.5172    0.4125    0.1430 O   0  0  0  0  0  0  0  0  0  0  0  0
   -0.3955   -0.3392    0.5155 C   0  0  0  0  0  0  0  0  0  0  0  0
    0.8578    0.2466   -0.1283 C   0  0  0  0  0  0  0  0  0  0  0  0
    1.1514    1.9027    0.4645 Cl  0  0  0  0  0  0  0  0  0  0  0  0
    2.2723   -0.7643    0.2612 Cl  0  0  0  0  0  0  0  0  0  0  0  0
   -2.2934   -0.0098    0.5946 H   0  0  0  0  0  0  0  0  0  0  0  0
   -0.2853   -0.3322    1.6233 H   0  0  0  0  0  0  0  0  0  0  0  0
   -0.5246   -1.3906    0.1739 H   0  0  0  0  0  0  0  0  0  0  0  0
    0.7346    0.2744   -1.2318 H   0  0  0  0  0  0  0  0  0  0  0  0
  1  2  1  0
  2  3  1  0
  3  4  1  0
  3  5  1  0
  1  6  1  0
  2  7  1  0
  2  8  1  0
  3  9  1  0
M  END
