
     RDKit          3D

 16 15  0  0  0  0  0  0  0  0999 V2000
    2.0132    0.3154   -0.0939 C   0  0  0  0  0  0  0  0  0  0  0  0
    0.7777   -0.5299    0.2095 C   0  0  0  0  0  0  0  0  0  0  0  0
   -0.4282    0.0525   -0.4182 N   0  0  0  0  0  0  0  0  0  0  0  0
   -1.4621   -0.9825   -0.5825 C   0  0  0  0  0  0  0  0  0  0  0  0
   -0.9684    1.1562    0.3954 C   0  0  0  0  0  0  0  0  0  0  0  0
    2.1001    0.4865   -1.1879 H   0  0  0  0  0  0  0  0  0  0  0  0
    2.9226   -0.2171    0.2564 H   0  0  0  0  0  0  0  0  0  0  0  0
    1.9641    1.2924    0.4289 H   0  0  0  0  0  0  0  0  0  0  0  0
    0.9778   -1.5456   -0.2011 H   0  0  0  0  0  0  0  0  0  0  0  0
    0.6538   -0.6380    1.3110 H   0  0  0  0  0  0  0  0  0  0  0  0
   -1.7356   -1.4376    0.3959 H   0  0  0  0  0  0  0  0  0  0  0  0
   -2.3730   -0.5487   -1.0491 H   0  0  0  0  0  0  0  0  0  0  0  0
   -1.0990   -1.7802   -1.2657 H   0  0  0  0  0  0  0  0  0  0  0  0
   -1.8682    1.5880   -0.0938 H   0  0  0  0  0  0  0  0  0  0  0  0
   -1.2464    0.8104    1.4162 H   0  0  0  0  0  0  0  0  0  0  0  0
   -0.2283    1.9781    0.4790 H   0  0  0  0  0  0  0  0  0  0  0  0
  1  2  1  0
  2  3  1  0
  3  4  1  0
  3  5  1  0
  1  6  1  0
  1  7  1  0
  1  8  1  0
  2  9  1  0
  2 10  1  0
  4 11  1  0
  4 12  1  0
  4 13  1  0
  5 14  1  0
  5 15  1  0
  5 16  1  0
M  END
