
     RDKit          3D

 42 42  0  0  0  0  0  0  0  0999 V2000
    2.7222    1.6568    0.0391 C   0  0  0  0  0  0  0  0  0  0  0  0
    2.0818    1.1548    1.3394 C   0  0  0  0  0  0  0  0  0  0  0  0
    2.5490    2.0024    2.5274 C   0  0  0  0  0  0  0  0  0  0  0  0
    2.4005   -0.3307    1.5794 C   0  0  0  0  0  0  0  0  0  0  0  0
    1.9023   -1.1400    0.5148 O   0  0  0  0  0  0  0  0  0  0  0  0
    0.5596   -1.5206    0.3849 C   0  0  0  0  0  0  0  0  0  0  0  0
   -0.2750   -1.2141    1.2790 O   0  0  0  0  0  0  0  0  0  0  0  0
    0.1559   -2.3659   -0.7639 C   0  0  0  0  0  0  0  0  0  0  0  0
   -1.1711   -2.4096   -1.2815 C   0  0  0  0  0  0  0  0  0  0  0  0
   -1.4781   -3.3423   -2.2920 C   0  0  0  0  0  0  0  0  0  0  0  0
   -0.4974   -4.1869   -2.8107 C   0  0  0  0  0  0  0  0  0  0  0  0
    0.8073   -4.1161   -2.3329 C   0  0  0  0  0  0  0  0  0  0  0  0
    1.1324   -3.2158   -1.3190 C   0  0  0  0  0  0  0  0  0  0  0  0
   -2.2418   -1.4703   -0.8674 C   0  0  0  0  0  0  0  0  0  0  0  0
   -3.4453   -1.8505   -0.8917 O   0  0  0  0  0  0  0  0  0  0  0  0
   -1.9380   -0.1479   -0.5277 O   0  0  0  0  0  0  0  0  0  0  0  0
   -2.9420    0.8605   -0.4110 C   0  0  0  0  0  0  0  0  0  0  0  0
   -2.3434    2.1810    0.0999 C   0  0  0  0  0  0  0  0  0  0  0  0
   -1.1463    2.6205   -0.7531 C   0  0  0  0  0  0  0  0  0  0  0  0
   -1.9616    2.0756    1.5811 C   0  0  0  0  0  0  0  0  0  0  0  0
    2.3379    1.0796   -0.8286 H   0  0  0  0  0  0  0  0  0  0  0  0
    3.8277    1.5522    0.0801 H   0  0  0  0  0  0  0  0  0  0  0  0
    2.4680    2.7260   -0.1241 H   0  0  0  0  0  0  0  0  0  0  0  0
    0.9841    1.2712    1.2514 H   0  0  0  0  0  0  0  0  0  0  0  0
    3.6497    1.9221    2.6582 H   0  0  0  0  0  0  0  0  0  0  0  0
    2.2829    3.0688    2.3652 H   0  0  0  0  0  0  0  0  0  0  0  0
    2.0503    1.6618    3.4599 H   0  0  0  0  0  0  0  0  0  0  0  0
    3.5017   -0.4680    1.6383 H   0  0  0  0  0  0  0  0  0  0  0  0
    1.9693   -0.6726    2.5461 H   0  0  0  0  0  0  0  0  0  0  0  0
   -2.4773   -3.3976   -2.7070 H   0  0  0  0  0  0  0  0  0  0  0  0
   -0.7482   -4.8898   -3.5947 H   0  0  0  0  0  0  0  0  0  0  0  0
    1.5680   -4.7696   -2.7405 H   0  0  0  0  0  0  0  0  0  0  0  0
    2.1494   -3.2076   -0.9464 H   0  0  0  0  0  0  0  0  0  0  0  0
   -3.4033    1.0293   -1.4086 H   0  0  0  0  0  0  0  0  0  0  0  0
   -3.7422    0.5217    0.2837 H   0  0  0  0  0  0  0  0  0  0  0  0
   -3.1267    2.9663    0.0121 H   0  0  0  0  0  0  0  0  0  0  0  0
   -0.7638    3.6019   -0.4002 H   0  0  0  0  0  0  0  0  0  0  0  0
   -1.4558    2.7307   -1.8142 H   0  0  0  0  0  0  0  0  0  0  0  0
   -0.3233    1.8778   -0.6984 H   0  0  0  0  0  0  0  0  0  0  0  0
   -1.4840    3.0172    1.9267 H   0  0  0  0  0  0  0  0  0  0  0  0
   -1.2639    1.2324    1.7522 H   0  0  0  0  0  0  0  0  0  0  0  0
   -2.8716    1.9053    2.1950 H   0  0  0  0  0  0  0  0  0  0  0  0
  1  2  1  0
  2  3  1  0
  2  4  1  0
  4  5  1  0
  5  6  1  0
  6  7  2  0
  6  8  1  0
  8  9  2  0
  9 10  1  0
 10 11  2  0
 11 12  1  0
 12 13  2  0
  9 14  1  0
 14 15  2  0
 14 16  1  0
 16 17  1  0
 17 18  1  0
 18 19  1  0
 18 20  1  0
 13  8  1  0
  1 21  1  0
  1 22  1  0
  1 23  1  0
  2 24  1  0
  3 25  1  0
  3 26  1  0
  3 27  1  0
  4 28  1  0
  4 29  1  0
 10 30  1  0
 11 31  1  0
 12 32  1  0
 13 33  1  0
 17 34  1  0
 17 35  1  0
 18 36  1  0
 19 37  1  0
 19 38  1  0
 19 39  1  0
 20 40  1  0
 20 41  1  0
 20 42  1  0
M  END
