
     RDKit          3D

 21 21  0  0  0  0  0  0  0  0999 V2000
    3.5187   -0.1164   -0.2766 C   0  0  0  0  0  0  0  0  0  0  0  0
    2.0374   -0.4386   -0.4260 C   0  0  0  0  0  0  0  0  0  0  0  0
    1.0340    0.7354    0.4687 S   0  0  0  0  0  6  0  0  0  0  0  0
    1.3879    0.7022    1.9295 O   0  0  0  0  0  0  0  0  0  0  0  0
    1.2793    2.1228   -0.0561 O   0  0  0  0  0  0  0  0  0  0  0  0
   -0.6630    0.3163    0.2617 C   0  0  0  0  0  0  0  0  0  0  0  0
   -1.3933    0.8416   -0.8144 C   0  0  0  0  0  0  0  0  0  0  0  0
   -2.7376    0.4961   -0.9862 C   0  0  0  0  0  0  0  0  0  0  0  0
   -3.3561   -0.3786   -0.0882 C   0  0  0  0  0  0  0  0  0  0  0  0
   -2.6300   -0.9112    0.9811 C   0  0  0  0  0  0  0  0  0  0  0  0
   -1.2856   -0.5675    1.1553 C   0  0  0  0  0  0  0  0  0  0  0  0
    3.8161   -0.1581    0.7926 H   0  0  0  0  0  0  0  0  0  0  0  0
    4.1189   -0.8602   -0.8415 H   0  0  0  0  0  0  0  0  0  0  0  0
    3.7356    0.8953   -0.6799 H   0  0  0  0  0  0  0  0  0  0  0  0
    1.8380   -1.4584   -0.0341 H   0  0  0  0  0  0  0  0  0  0  0  0
    1.7578   -0.4094   -1.5004 H   0  0  0  0  0  0  0  0  0  0  0  0
   -0.9231    1.5142   -1.5204 H   0  0  0  0  0  0  0  0  0  0  0  0
   -3.2990    0.9046   -1.8165 H   0  0  0  0  0  0  0  0  0  0  0  0
   -4.3962   -0.6460   -0.2226 H   0  0  0  0  0  0  0  0  0  0  0  0
   -3.1081   -1.5921    1.6734 H   0  0  0  0  0  0  0  0  0  0  0  0
   -0.7315   -0.9920    1.9828 H   0  0  0  0  0  0  0  0  0  0  0  0
  1  2  1  0
  2  3  1  0
  3  4  2  0
  3  5  2  0
  3  6  1  0
  6  7  2  0
  7  8  1  0
  8  9  2  0
  9 10  1  0
 10 11  2  0
 11  6  1  0
  1 12  1  0
  1 13  1  0
  1 14  1  0
  2 15  1  0
  2 16  1  0
  7 17  1  0
  8 18  1  0
  9 19  1  0
 10 20  1  0
 11 21  1  0
M  END
