
     RDKit          3D

 24 23  0  0  0  0  0  0  0  0999 V2000
    2.1688    1.2852    0.8333 C   0  0  0  0  0  0  0  0  0  0  0  0
    1.2227    0.1090    0.5471 C   0  0  0  0  0  0  0  0  0  0  0  0
    2.0010   -0.9937   -0.1963 C   0  0  0  0  0  0  0  0  0  0  0  0
   -0.0501    0.5931   -0.2214 C   0  0  0  0  0  0  0  0  0  0  0  0
    0.1138    0.4227   -1.6103 O   0  0  0  0  0  0  0  0  0  0  0  0
   -1.3586   -0.0941    0.2677 C   0  0  0  0  0  0  0  0  0  0  0  0
   -1.3796   -1.6091    0.0165 C   0  0  0  0  0  0  0  0  0  0  0  0
   -2.5932    0.5588   -0.3729 C   0  0  0  0  0  0  0  0  0  0  0  0
    2.4907    1.7666   -0.1153 H   0  0  0  0  0  0  0  0  0  0  0  0
    1.6596    2.0428    1.4667 H   0  0  0  0  0  0  0  0  0  0  0  0
    3.0690    0.9341    1.3821 H   0  0  0  0  0  0  0  0  0  0  0  0
    0.9198   -0.3015    1.5359 H   0  0  0  0  0  0  0  0  0  0  0  0
    1.3439   -1.8407   -0.4724 H   0  0  0  0  0  0  0  0  0  0  0  0
    2.8107   -1.3895    0.4535 H   0  0  0  0  0  0  0  0  0  0  0  0
    2.4627   -0.5931   -1.1244 H   0  0  0  0  0  0  0  0  0  0  0  0
   -0.1795    1.6811    0.0005 H   0  0  0  0  0  0  0  0  0  0  0  0
   -0.3511    1.1753   -2.0610 H   0  0  0  0  0  0  0  0  0  0  0  0
   -1.4441    0.0673    1.3656 H   0  0  0  0  0  0  0  0  0  0  0  0
   -2.3733   -2.0299    0.2809 H   0  0  0  0  0  0  0  0  0  0  0  0
   -0.6332   -2.1179    0.6602 H   0  0  0  0  0  0  0  0  0  0  0  0
   -1.1723   -1.8380   -1.0504 H   0  0  0  0  0  0  0  0  0  0  0  0
   -2.5908    1.6546   -0.1909 H   0  0  0  0  0  0  0  0  0  0  0  0
   -3.5215    0.1422    0.0735 H   0  0  0  0  0  0  0  0  0  0  0  0
   -2.6151    0.3747   -1.4683 H   0  0  0  0  0  0  0  0  0  0  0  0
  1  2  1  0
  2  3  1  0
  2  4  1  0
  4  5  1  0
  4  6  1  0
  6  7  1  0
  6  8  1  0
  1  9  1  0
  1 10  1  0
  1 11  1  0
  2 12  1  0
  3 13  1  0
  3 14  1  0
  3 15  1  0
  4 16  1  0
  5 17  1  0
  6 18  1  0
  7 19  1  0
  7 20  1  0
  7 21  1  0
  8 22  1  0
  8 23  1  0
  8 24  1  0
M  END
