
     RDKit          3D

 18 18  0  0  0  0  0  0  0  0999 V2000
   -0.1714   -2.0853   -0.0828 N   0  0  0  0  0  0  0  0  0  0  0  0
   -0.0562   -0.6517   -0.0758 C   0  0  0  0  0  0  0  0  0  0  0  0
    1.2232   -0.0370   -0.0776 C   0  0  0  0  0  0  0  0  0  0  0  0
    1.3270    1.3458    0.1360 C   0  0  0  0  0  0  0  0  0  0  0  0
    0.1865    2.1245    0.3134 C   0  0  0  0  0  0  0  0  0  0  0  0
   -1.0753    1.5383    0.2610 C   0  0  0  0  0  0  0  0  0  0  0  0
   -1.2150    0.1584    0.0492 C   0  0  0  0  0  0  0  0  0  0  0  0
   -2.5361   -0.3972   -0.0468 N   0  0  0  0  0  4  0  0  0  0  0  0
   -3.5599    0.1353    0.7026 O   0  0  0  0  0  1  0  0  0  0  0  0
   -2.8147   -1.1960   -0.9647 O   0  0  0  0  0  0  0  0  0  0  0  0
    2.4223   -0.7945   -0.3047 N   0  0  0  0  0  4  0  0  0  0  0  0
    3.5894   -0.4377    0.3308 O   0  0  0  0  0  1  0  0  0  0  0  0
    2.4744   -1.6198   -1.2398 O   0  0  0  0  0  0  0  0  0  0  0  0
   -1.0877   -2.5636    0.0525 H   0  0  0  0  0  0  0  0  0  0  0  0
    0.6663   -2.7042   -0.0387 H   0  0  0  0  0  0  0  0  0  0  0  0
    2.2971    1.8265    0.1469 H   0  0  0  0  0  0  0  0  0  0  0  0
    0.2802    3.1914    0.4706 H   0  0  0  0  0  0  0  0  0  0  0  0
   -1.9504    2.1669    0.3678 H   0  0  0  0  0  0  0  0  0  0  0  0
  1  2  1  0
  2  3  2  0
  3  4  1  0
  4  5  2  0
  5  6  1  0
  6  7  2  0
  7  8  1  0
  8  9  1  0
  8 10  2  0
  3 11  1  0
 11 12  1  0
 11 13  2  0
  7  2  1  0
  1 14  1  0
  1 15  1  0
  4 16  1  0
  5 17  1  0
  6 18  1  0
M  CHG  4   8   1   9  -1  11   1  12  -1
M  END
