
     RDKit          3D

 21 22  0  0  0  0  0  0  0  0999 V2000
    1.3311   -2.0285   -0.8699 O   0  0  0  0  0  0  0  0  0  0  0  0
    0.9672   -0.7652   -0.3924 C   0  0  0  0  0  0  0  0  0  0  0  0
    1.9423    0.2237   -0.1135 C   0  0  0  0  0  0  0  0  0  0  0  0
    1.5446    1.4438    0.4539 C   0  0  0  0  0  0  0  0  0  0  0  0
    0.2000    1.7102    0.7070 C   0  0  0  0  0  0  0  0  0  0  0  0
   -0.7780    0.7583    0.3987 C   0  0  0  0  0  0  0  0  0  0  0  0
   -2.1334    1.0313    0.6427 C   0  0  0  0  0  0  0  0  0  0  0  0
   -3.1075    0.0769    0.3424 C   0  0  0  0  0  0  0  0  0  0  0  0
   -2.7385   -1.1550   -0.2003 C   0  0  0  0  0  0  0  0  0  0  0  0
   -1.3932   -1.4410   -0.4477 C   0  0  0  0  0  0  0  0  0  0  0  0
   -0.3969   -0.4893   -0.1555 C   0  0  0  0  0  0  0  0  0  0  0  0
    3.3305    0.0184   -0.4186 N   0  0  0  0  0  4  0  0  0  0  0  0
    4.2984    0.5755    0.3852 O   0  0  0  0  0  1  0  0  0  0  0  0
    3.6670   -0.4606   -1.5210 O   0  0  0  0  0  0  0  0  0  0  0  0
    2.2890   -2.3477   -0.9231 H   0  0  0  0  0  0  0  0  0  0  0  0
    2.2798    2.2065    0.6776 H   0  0  0  0  0  0  0  0  0  0  0  0
   -0.0761    2.6667    1.1350 H   0  0  0  0  0  0  0  0  0  0  0  0
   -2.4386    1.9809    1.0661 H   0  0  0  0  0  0  0  0  0  0  0  0
   -4.1511    0.2921    0.5323 H   0  0  0  0  0  0  0  0  0  0  0  0
   -3.4977   -1.8916   -0.4298 H   0  0  0  0  0  0  0  0  0  0  0  0
   -1.1387   -2.4054   -0.8692 H   0  0  0  0  0  0  0  0  0  0  0  0
  1  2  1  0
  2  3  2  0
  3  4  1  0
  4  5  2  0
  5  6  1  0
  6  7  2  0
  7  8  1  0
  8  9  2  0
  9 10  1  0
 10 11  2  0
  3 12  1  0
 12 13  1  0
 12 14  2  0
 11  2  1  0
 11  6  1  0
  1 15  1  0
  4 16  1  0
  5 17  1  0
  7 18  1  0
  8 19  1  0
  9 20  1  0
 10 21  1  0
M  CHG  2  12   1  13  -1
M  END
