
     RDKit          3D

 19 20  0  0  0  0  0  0  0  0999 V2000
   -0.8947    2.8928   -1.0794 O   0  0  0  0  0  1  0  0  0  0  0  0
   -1.3303    2.2210    0.0394 N   0  0  0  0  0  4  0  0  0  0  0  0
   -2.1225    2.7942    0.8155 O   0  0  0  0  0  0  0  0  0  0  0  0
   -1.0963    0.8090    0.1667 C   0  0  0  0  0  0  0  0  0  0  0  0
   -2.1726   -0.0347    0.4924 C   0  0  0  0  0  0  0  0  0  0  0  0
   -2.0000   -1.4179    0.5647 C   0  0  0  0  0  0  0  0  0  0  0  0
   -0.7498   -1.9836    0.3186 C   0  0  0  0  0  0  0  0  0  0  0  0
    0.3430   -1.1667    0.0164 C   0  0  0  0  0  0  0  0  0  0  0  0
    0.1846    0.2411   -0.0523 C   0  0  0  0  0  0  0  0  0  0  0  0
    1.3287    1.0230   -0.3012 C   0  0  0  0  0  0  0  0  0  0  0  0
    2.5649    0.4110   -0.5146 C   0  0  0  0  0  0  0  0  0  0  0  0
    2.6623   -0.9790   -0.4655 C   0  0  0  0  0  0  0  0  0  0  0  0
    1.5631   -1.7296   -0.1966 N   0  0  0  0  0  0  0  0  0  0  0  0
   -3.1575    0.3804    0.6661 H   0  0  0  0  0  0  0  0  0  0  0  0
   -2.8418   -2.0546    0.8049 H   0  0  0  0  0  0  0  0  0  0  0  0
   -0.6292   -3.0586    0.3742 H   0  0  0  0  0  0  0  0  0  0  0  0
    1.2874    2.1027   -0.3110 H   0  0  0  0  0  0  0  0  0  0  0  0
    3.4442    1.0114   -0.7095 H   0  0  0  0  0  0  0  0  0  0  0  0
    3.6164   -1.4620   -0.6289 H   0  0  0  0  0  0  0  0  0  0  0  0
  1  2  1  0
  2  3  2  0
  2  4  1  0
  4  5  2  0
  5  6  1  0
  6  7  2  0
  7  8  1  0
  8  9  2  0
  9 10  1  0
 10 11  2  0
 11 12  1  0
 12 13  2  0
  9  4  1  0
 13  8  1  0
  5 14  1  0
  6 15  1  0
  7 16  1  0
 10 17  1  0
 11 18  1  0
 12 19  1  0
M  CHG  2   1  -1   2   1
M  END
