
     RDKit          3D

 19 20  0  0  0  0  0  0  0  0999 V2000
   -1.2336    3.1059   -0.3432 O   0  0  0  0  0  1  0  0  0  0  0  0
   -1.9582    2.0132    0.0742 N   0  0  0  0  0  4  0  0  0  0  0  0
   -3.1560    2.1795    0.3856 O   0  0  0  0  0  0  0  0  0  0  0  0
   -1.3773    0.6911    0.0932 C   0  0  0  0  0  0  0  0  0  0  0  0
   -2.2172   -0.4360    0.1900 C   0  0  0  0  0  0  0  0  0  0  0  0
   -1.6873   -1.7278    0.2019 C   0  0  0  0  0  0  0  0  0  0  0  0
   -0.3097   -1.9247    0.1219 C   0  0  0  0  0  0  0  0  0  0  0  0
    0.5510   -0.8242    0.0336 C   0  0  0  0  0  0  0  0  0  0  0  0
    1.9392   -1.0040   -0.0361 C   0  0  0  0  0  0  0  0  0  0  0  0
    2.7811    0.1056   -0.1111 C   0  0  0  0  0  0  0  0  0  0  0  0
    2.2281    1.3862   -0.1141 C   0  0  0  0  0  0  0  0  0  0  0  0
    0.8801    1.5477   -0.0481 N   0  0  0  0  0  0  0  0  0  0  0  0
    0.0230    0.4907    0.0200 C   0  0  0  0  0  0  0  0  0  0  0  0
   -3.2918   -0.3183    0.2469 H   0  0  0  0  0  0  0  0  0  0  0  0
   -2.3497   -2.5810    0.2722 H   0  0  0  0  0  0  0  0  0  0  0  0
    0.0826   -2.9347    0.1331 H   0  0  0  0  0  0  0  0  0  0  0  0
    2.3706   -1.9979   -0.0294 H   0  0  0  0  0  0  0  0  0  0  0  0
    3.8542   -0.0256   -0.1637 H   0  0  0  0  0  0  0  0  0  0  0  0
    2.8712    2.2544   -0.1687 H   0  0  0  0  0  0  0  0  0  0  0  0
  1  2  1  0
  2  3  2  0
  2  4  1  0
  4  5  2  0
  5  6  1  0
  6  7  2  0
  7  8  1  0
  8  9  2  0
  9 10  1  0
 10 11  2  0
 11 12  1  0
 12 13  2  0
 13  4  1  0
 13  8  1  0
  5 14  1  0
  6 15  1  0
  7 16  1  0
  9 17  1  0
 10 18  1  0
 11 19  1  0
M  CHG  2   1  -1   2   1
M  END
