
     RDKit          3D

 36 36  0  0  0  0  0  0  0  0999 V2000
   -2.5977    2.6669    1.5891 C   0  0  0  0  0  0  0  0  0  0  0  0
   -1.0844    2.5605    1.7372 C   0  0  0  0  0  0  0  0  0  0  0  0
   -0.6229    1.2892    1.2860 O   0  0  0  0  0  0  0  0  0  0  0  0
   -0.5107    0.9459   -0.0661 C   0  0  0  0  0  0  0  0  0  0  0  0
   -0.7820    1.7871   -0.9676 O   0  0  0  0  0  0  0  0  0  0  0  0
   -0.0165   -0.4253   -0.4361 C   0  0  0  0  0  0  0  0  0  0  0  0
    1.3757   -0.3647   -1.0951 C   0  0  0  0  0  0  0  0  0  0  0  0
    2.4199    0.1484   -0.1350 C   0  0  0  0  0  0  0  0  0  0  0  0
    2.7697    1.5096   -0.1246 C   0  0  0  0  0  0  0  0  0  0  0  0
    3.7091    1.9883    0.7937 C   0  0  0  0  0  0  0  0  0  0  0  0
    4.3009    1.1150    1.7104 C   0  0  0  0  0  0  0  0  0  0  0  0
    3.9517   -0.2382    1.7125 C   0  0  0  0  0  0  0  0  0  0  0  0
    3.0119   -0.7210    0.7965 C   0  0  0  0  0  0  0  0  0  0  0  0
   -1.0119   -1.1066   -1.3333 C   0  0  0  0  0  0  0  0  0  0  0  0
   -1.1363   -0.7443   -2.5363 O   0  0  0  0  0  0  0  0  0  0  0  0
   -1.8189   -2.1221   -0.8119 O   0  0  0  0  0  0  0  0  0  0  0  0
   -2.7966   -2.8020   -1.5919 C   0  0  0  0  0  0  0  0  0  0  0  0
   -3.4986   -3.8425   -0.7343 C   0  0  0  0  0  0  0  0  0  0  0  0
   -2.8881    2.6051    0.5197 H   0  0  0  0  0  0  0  0  0  0  0  0
   -2.9452    3.6394    1.9970 H   0  0  0  0  0  0  0  0  0  0  0  0
   -3.0916    1.8445    2.1486 H   0  0  0  0  0  0  0  0  0  0  0  0
   -0.8224    2.6707    2.8105 H   0  0  0  0  0  0  0  0  0  0  0  0
   -0.5819    3.3771    1.1742 H   0  0  0  0  0  0  0  0  0  0  0  0
    0.0664   -1.0308    0.4940 H   0  0  0  0  0  0  0  0  0  0  0  0
    1.3440    0.2769   -2.0039 H   0  0  0  0  0  0  0  0  0  0  0  0
    1.6678   -1.3838   -1.4330 H   0  0  0  0  0  0  0  0  0  0  0  0
    2.3115    2.1993   -0.8226 H   0  0  0  0  0  0  0  0  0  0  0  0
    3.9758    3.0373    0.7970 H   0  0  0  0  0  0  0  0  0  0  0  0
    5.0269    1.4875    2.4214 H   0  0  0  0  0  0  0  0  0  0  0  0
    4.4064   -0.9126    2.4265 H   0  0  0  0  0  0  0  0  0  0  0  0
    2.7423   -1.7698    0.8147 H   0  0  0  0  0  0  0  0  0  0  0  0
   -2.3061   -3.3059   -2.4529 H   0  0  0  0  0  0  0  0  0  0  0  0
   -3.5456   -2.0741   -1.9727 H   0  0  0  0  0  0  0  0  0  0  0  0
   -3.9989   -3.3499    0.1263 H   0  0  0  0  0  0  0  0  0  0  0  0
   -2.7611   -4.5808   -0.3540 H   0  0  0  0  0  0  0  0  0  0  0  0
   -4.2624   -4.3743   -1.3399 H   0  0  0  0  0  0  0  0  0  0  0  0
  1  2  1  0
  2  3  1  0
  3  4  1  0
  4  5  2  0
  4  6  1  0
  6  7  1  0
  7  8  1  0
  8  9  2  0
  9 10  1  0
 10 11  2  0
 11 12  1  0
 12 13  2  0
  6 14  1  0
 14 15  2  0
 14 16  1  0
 16 17  1  0
 17 18  1  0
 13  8  1  0
  1 19  1  0
  1 20  1  0
  1 21  1  0
  2 22  1  0
  2 23  1  0
  6 24  1  0
  7 25  1  0
  7 26  1  0
  9 27  1  0
 10 28  1  0
 11 29  1  0
 12 30  1  0
 13 31  1  0
 17 32  1  0
 17 33  1  0
 18 34  1  0
 18 35  1  0
 18 36  1  0
M  END
