
     RDKit          3D

 23 24  0  0  0  0  0  0  0  0999 V2000
    3.7355    1.0113   -2.0606 Br  0  0  0  0  0  0  0  0  0  0  0  0
    3.7368    0.1274   -0.3366 C   0  0  0  0  0  0  0  0  0  0  0  0
    2.7692   -1.0208   -0.3446 C   0  0  0  0  0  0  0  0  0  0  0  0
    3.2272   -2.1782   -0.5488 O   0  0  0  0  0  0  0  0  0  0  0  0
    1.3035   -0.8361   -0.1500 C   0  0  0  0  0  0  0  0  0  0  0  0
    0.7214    0.4469   -0.0984 C   0  0  0  0  0  0  0  0  0  0  0  0
   -0.6620    0.5991    0.0834 C   0  0  0  0  0  0  0  0  0  0  0  0
   -1.2405    1.8778    0.1339 C   0  0  0  0  0  0  0  0  0  0  0  0
   -2.6195    2.0181    0.3152 C   0  0  0  0  0  0  0  0  0  0  0  0
   -3.4300    0.8876    0.4468 C   0  0  0  0  0  0  0  0  0  0  0  0
   -2.8670   -0.3908    0.3976 C   0  0  0  0  0  0  0  0  0  0  0  0
   -1.4835   -0.5447    0.2158 C   0  0  0  0  0  0  0  0  0  0  0  0
   -0.9077   -1.8197    0.1625 C   0  0  0  0  0  0  0  0  0  0  0  0
    0.4698   -1.9633   -0.0195 C   0  0  0  0  0  0  0  0  0  0  0  0
    3.4852    0.8505    0.4666 H   0  0  0  0  0  0  0  0  0  0  0  0
    4.7643   -0.2454   -0.1385 H   0  0  0  0  0  0  0  0  0  0  0  0
    1.3329    1.3326   -0.2082 H   0  0  0  0  0  0  0  0  0  0  0  0
   -0.6282    2.7661    0.0337 H   0  0  0  0  0  0  0  0  0  0  0  0
   -3.0609    3.0056    0.3538 H   0  0  0  0  0  0  0  0  0  0  0  0
   -4.4971    1.0023    0.5870 H   0  0  0  0  0  0  0  0  0  0  0  0
   -3.5106   -1.2563    0.5008 H   0  0  0  0  0  0  0  0  0  0  0  0
   -1.5222   -2.7066    0.2617 H   0  0  0  0  0  0  0  0  0  0  0  0
    0.8835   -2.9634   -0.0536 H   0  0  0  0  0  0  0  0  0  0  0  0
  1  2  1  0
  2  3  1  0
  3  4  2  0
  3  5  1  0
  5  6  2  0
  6  7  1  0
  7  8  2  0
  8  9  1  0
  9 10  2  0
 10 11  1  0
 11 12  2  0
 12 13  1  0
 13 14  2  0
 14  5  1  0
 12  7  1  0
  2 15  1  0
  2 16  1  0
  6 17  1  0
  8 18  1  0
  9 19  1  0
 10 20  1  0
 11 21  1  0
 13 22  1  0
 14 23  1  0
M  END
