
     RDKit          3D

 23 23  0  0  0  0  0  0  0  0999 V2000
   -2.2420    1.2462    0.3579 C   0  0  0  0  0  0  0  0  0  0  0  0
   -2.0226    0.1163   -0.6445 C   0  0  0  0  0  0  0  0  0  0  0  0
   -0.8961   -0.7387   -0.2326 N   0  0  0  0  0  0  0  0  0  0  0  0
   -1.1383   -2.1542    0.0702 C   0  0  0  0  0  0  0  0  0  0  0  0
    0.4420   -0.2016   -0.1027 C   0  0  0  0  0  0  0  0  0  0  0  0
    1.2828   -0.6240    0.9460 C   0  0  0  0  0  0  0  0  0  0  0  0
    2.5743   -0.1045    1.0750 C   0  0  0  0  0  0  0  0  0  0  0  0
    3.0446    0.8394    0.1605 C   0  0  0  0  0  0  0  0  0  0  0  0
    2.2246    1.2650   -0.8860 C   0  0  0  0  0  0  0  0  0  0  0  0
    0.9318    0.7495   -1.0200 C   0  0  0  0  0  0  0  0  0  0  0  0
   -1.3627    1.9234    0.3815 H   0  0  0  0  0  0  0  0  0  0  0  0
   -2.4080    0.8266    1.3728 H   0  0  0  0  0  0  0  0  0  0  0  0
   -3.1346    1.8376    0.0639 H   0  0  0  0  0  0  0  0  0  0  0  0
   -2.9646   -0.4702   -0.7071 H   0  0  0  0  0  0  0  0  0  0  0  0
   -1.8430    0.5342   -1.6561 H   0  0  0  0  0  0  0  0  0  0  0  0
   -1.1603   -2.3065    1.1692 H   0  0  0  0  0  0  0  0  0  0  0  0
   -2.1053   -2.5017   -0.3503 H   0  0  0  0  0  0  0  0  0  0  0  0
   -0.3353   -2.7796   -0.3750 H   0  0  0  0  0  0  0  0  0  0  0  0
    0.9380   -1.3437    1.6760 H   0  0  0  0  0  0  0  0  0  0  0  0
    3.2101   -0.4325    1.8872 H   0  0  0  0  0  0  0  0  0  0  0  0
    4.0449    1.2402    0.2620 H   0  0  0  0  0  0  0  0  0  0  0  0
    2.5922    1.9933   -1.5974 H   0  0  0  0  0  0  0  0  0  0  0  0
    0.3276    1.0855   -1.8504 H   0  0  0  0  0  0  0  0  0  0  0  0
  1  2  1  0
  2  3  1  0
  3  4  1  0
  3  5  1  0
  5  6  2  0
  6  7  1  0
  7  8  2  0
  8  9  1  0
  9 10  2  0
 10  5  1  0
  1 11  1  0
  1 12  1  0
  1 13  1  0
  2 14  1  0
  2 15  1  0
  4 16  1  0
  4 17  1  0
  4 18  1  0
  6 19  1  0
  7 20  1  0
  8 21  1  0
  9 22  1  0
 10 23  1  0
M  END
