
     RDKit          3D

 12 12  0  0  0  0  0  0  0  0999 V2000
   -1.6787   -0.3323    0.1134 C   0  0  0  0  0  0  0  0  0  0  0  0
   -0.2507    0.0797   -0.0521 C   0  0  0  0  0  0  0  0  0  0  0  0
    0.1329    1.3765   -0.3754 C   0  0  0  0  0  0  0  0  0  0  0  0
    1.8124    1.4290   -0.3928 S   0  0  0  0  0  0  0  0  0  0  0  0
    2.0679   -0.1801    0.0202 C   0  0  0  0  0  0  0  0  0  0  0  0
    0.8293   -0.7851    0.1812 C   0  0  0  0  0  0  0  0  0  0  0  0
   -1.9894   -0.1728    1.1669 H   0  0  0  0  0  0  0  0  0  0  0  0
   -2.3332    0.2672   -0.5541 H   0  0  0  0  0  0  0  0  0  0  0  0
   -1.8018   -1.4056   -0.1440 H   0  0  0  0  0  0  0  0  0  0  0  0
   -0.5307    2.2075   -0.5747 H   0  0  0  0  0  0  0  0  0  0  0  0
    3.0284   -0.6604    0.1482 H   0  0  0  0  0  0  0  0  0  0  0  0
    0.7136   -1.8236    0.4633 H   0  0  0  0  0  0  0  0  0  0  0  0
  1  2  1  0
  2  3  2  0
  3  4  1  0
  4  5  1  0
  5  6  2  0
  6  2  1  0
  1  7  1  0
  1  8  1  0
  1  9  1  0
  3 10  1  0
  5 11  1  0
  6 12  1  0
M  END
