
     RDKit          3D

 22 24  0  0  0  0  0  0  0  0999 V2000
    0.0618   -1.6031    0.6223 N   0  0  0  0  0  0  0  0  0  0  0  0
    1.1013   -0.7867    0.3412 C   0  0  0  0  0  0  0  0  0  0  0  0
    2.4580   -1.0675    0.4953 C   0  0  0  0  0  0  0  0  0  0  0  0
    3.3827   -0.0677    0.1394 C   0  0  0  0  0  0  0  0  0  0  0  0
    2.9382    1.1785   -0.3576 C   0  0  0  0  0  0  0  0  0  0  0  0
    1.5638    1.4403   -0.5049 C   0  0  0  0  0  0  0  0  0  0  0  0
    0.6718    0.4322   -0.1447 C   0  0  0  0  0  0  0  0  0  0  0  0
   -0.7028    0.3705   -0.1669 C   0  0  0  0  0  0  0  0  0  0  0  0
   -1.0369   -0.8825    0.3067 C   0  0  0  0  0  0  0  0  0  0  0  0
   -2.3673   -1.2838    0.4174 C   0  0  0  0  0  0  0  0  0  0  0  0
   -3.3658   -0.3703    0.0306 C   0  0  0  0  0  0  0  0  0  0  0  0
   -3.0188    0.9114   -0.4536 C   0  0  0  0  0  0  0  0  0  0  0  0
   -1.6693    1.2953   -0.5570 C   0  0  0  0  0  0  0  0  0  0  0  0
    0.0994   -2.5763    1.0000 H   0  0  0  0  0  0  0  0  0  0  0  0
    2.7915   -2.0240    0.8764 H   0  0  0  0  0  0  0  0  0  0  0  0
    4.4431   -0.2552    0.2474 H   0  0  0  0  0  0  0  0  0  0  0  0
    3.6608    1.9377   -0.6272 H   0  0  0  0  0  0  0  0  0  0  0  0
    1.2152    2.3918   -0.8847 H   0  0  0  0  0  0  0  0  0  0  0  0
   -2.6260   -2.2669    0.7891 H   0  0  0  0  0  0  0  0  0  0  0  0
   -4.4081   -0.6520    0.1047 H   0  0  0  0  0  0  0  0  0  0  0  0
   -3.7973    1.6034   -0.7474 H   0  0  0  0  0  0  0  0  0  0  0  0
   -1.3952    2.2748   -0.9268 H   0  0  0  0  0  0  0  0  0  0  0  0
  1  2  1  0
  2  3  2  0
  3  4  1  0
  4  5  2  0
  5  6  1  0
  6  7  2  0
  7  8  1  0
  8  9  2  0
  9 10  1  0
 10 11  2  0
 11 12  1  0
 12 13  2  0
  9  1  1  0
  7  2  1  0
 13  8  1  0
  1 14  1  0
  3 15  1  0
  4 16  1  0
  5 17  1  0
  6 18  1  0
 10 19  1  0
 11 20  1  0
 12 21  1  0
 13 22  1  0
M  END
