
     RDKit          3D

 18 18  0  0  0  0  0  0  0  0999 V2000
   -2.0520   -1.7801   -0.8172 N   0  0  0  0  0  0  0  0  0  0  0  0
   -1.0172   -0.8824   -0.4051 C   0  0  0  0  0  0  0  0  0  0  0  0
    0.2894   -1.0508   -0.8800 C   0  0  0  0  0  0  0  0  0  0  0  0
    1.3138   -0.1758   -0.4825 C   0  0  0  0  0  0  0  0  0  0  0  0
    1.0092    0.8755    0.4019 C   0  0  0  0  0  0  0  0  0  0  0  0
   -0.2996    1.0557    0.8864 C   0  0  0  0  0  0  0  0  0  0  0  0
   -1.3073    0.1679    0.4747 C   0  0  0  0  0  0  0  0  0  0  0  0
   -0.6060    2.1331    1.7912 N   0  0  0  0  0  4  0  0  0  0  0  0
   -1.8868    2.3072    2.2636 O   0  0  0  0  0  1  0  0  0  0  0  0
    0.2838    2.9267    2.1622 O   0  0  0  0  0  0  0  0  0  0  0  0
    2.6549   -0.3557   -0.9753 N   0  0  0  0  0  4  0  0  0  0  0  0
    2.9502   -1.3847   -1.8401 O   0  0  0  0  0  1  0  0  0  0  0  0
    3.5713    0.4176   -0.6269 O   0  0  0  0  0  0  0  0  0  0  0  0
   -1.8480   -2.5671   -1.4729 H   0  0  0  0  0  0  0  0  0  0  0  0
   -3.0302   -1.6648   -0.4699 H   0  0  0  0  0  0  0  0  0  0  0  0
    0.5029   -1.8660   -1.5597 H   0  0  0  0  0  0  0  0  0  0  0  0
    1.7921    1.5547    0.7137 H   0  0  0  0  0  0  0  0  0  0  0  0
   -2.3207    0.2891    0.8358 H   0  0  0  0  0  0  0  0  0  0  0  0
  1  2  1  0
  2  3  2  0
  3  4  1  0
  4  5  2  0
  5  6  1  0
  6  7  2  0
  6  8  1  0
  8  9  1  0
  8 10  2  0
  4 11  1  0
 11 12  1  0
 11 13  2  0
  7  2  1  0
  1 14  1  0
  1 15  1  0
  3 16  1  0
  5 17  1  0
  7 18  1  0
M  CHG  4   8   1   9  -1  11   1  12  -1
M  END
