
     RDKit          3D

 16 16  0  0  0  0  0  0  0  0999 V2000
   -2.8423    0.3003    0.2630 N   0  0  0  0  0  0  0  0  0  0  0  0
   -1.8350   -0.6256   -0.1541 C   0  0  0  0  0  0  0  0  0  0  0  0
   -2.1902   -1.7514   -0.5967 O   0  0  0  0  0  0  0  0  0  0  0  0
   -0.3927   -0.2837   -0.0918 C   0  0  0  0  0  0  0  0  0  0  0  0
    0.0855    0.7098    0.7845 C   0  0  0  0  0  0  0  0  0  0  0  0
    1.4497    1.0143    0.8328 C   0  0  0  0  0  0  0  0  0  0  0  0
    2.3510    0.3302    0.0146 C   0  0  0  0  0  0  0  0  0  0  0  0
    1.8911   -0.6646   -0.8504 C   0  0  0  0  0  0  0  0  0  0  0  0
    0.5285   -0.9741   -0.9024 C   0  0  0  0  0  0  0  0  0  0  0  0
   -3.8457    0.0113    0.2638 H   0  0  0  0  0  0  0  0  0  0  0  0
   -2.6178    1.2942    0.4861 H   0  0  0  0  0  0  0  0  0  0  0  0
   -0.5827    1.2373    1.4512 H   0  0  0  0  0  0  0  0  0  0  0  0
    1.8092    1.7777    1.5107 H   0  0  0  0  0  0  0  0  0  0  0  0
    3.4063    0.5674    0.0547 H   0  0  0  0  0  0  0  0  0  0  0  0
    2.5908   -1.1968   -1.4818 H   0  0  0  0  0  0  0  0  0  0  0  0
    0.1942   -1.7463   -1.5842 H   0  0  0  0  0  0  0  0  0  0  0  0
  1  2  1  0
  2  3  2  0
  2  4  1  0
  4  5  2  0
  5  6  1  0
  6  7  2  0
  7  8  1  0
  8  9  2  0
  9  4  1  0
  1 10  1  0
  1 11  1  0
  5 12  1  0
  6 13  1  0
  7 14  1  0
  8 15  1  0
  9 16  1  0
M  END
