
     RDKit          3D

 23 23  0  0  0  0  0  0  0  0999 V2000
    4.3165    1.3082   -1.3644 O   0  0  0  0  0  0  0  0  0  0  0  0
    3.1630    0.9180   -0.6735 C   0  0  0  0  0  0  0  0  0  0  0  0
    2.3257   -0.0018   -1.5580 C   0  0  0  0  0  0  0  0  0  0  0  0
    1.1749   -0.4648   -0.8540 O   0  0  0  0  0  0  0  0  0  0  0  0
    0.0474    0.3294   -0.6094 C   0  0  0  0  0  0  0  0  0  0  0  0
   -0.0262    1.4920   -1.0931 O   0  0  0  0  0  0  0  0  0  0  0  0
   -1.0832   -0.2334    0.1598 C   0  0  0  0  0  0  0  0  0  0  0  0
   -1.3554   -1.6082    0.0362 C   0  0  0  0  0  0  0  0  0  0  0  0
   -2.4529   -2.1783    0.6849 C   0  0  0  0  0  0  0  0  0  0  0  0
   -3.2924   -1.3856    1.4664 C   0  0  0  0  0  0  0  0  0  0  0  0
   -3.0254   -0.0241    1.6174 C   0  0  0  0  0  0  0  0  0  0  0  0
   -1.9170    0.5595    0.9905 C   0  0  0  0  0  0  0  0  0  0  0  0
   -1.6623    1.9089    1.2453 O   0  0  0  0  0  0  0  0  0  0  0  0
    4.8226    1.8954   -0.7446 H   0  0  0  0  0  0  0  0  0  0  0  0
    2.5693    1.8178   -0.3993 H   0  0  0  0  0  0  0  0  0  0  0  0
    3.4466    0.3743    0.2552 H   0  0  0  0  0  0  0  0  0  0  0  0
    2.0223    0.5244   -2.4896 H   0  0  0  0  0  0  0  0  0  0  0  0
    2.9393   -0.8822   -1.8444 H   0  0  0  0  0  0  0  0  0  0  0  0
   -0.7326   -2.2396   -0.5859 H   0  0  0  0  0  0  0  0  0  0  0  0
   -2.6582   -3.2352    0.5728 H   0  0  0  0  0  0  0  0  0  0  0  0
   -4.1459   -1.8282    1.9636 H   0  0  0  0  0  0  0  0  0  0  0  0
   -3.6706    0.5786    2.2441 H   0  0  0  0  0  0  0  0  0  0  0  0
   -0.8056    2.3749    0.9799 H   0  0  0  0  0  0  0  0  0  0  0  0
  1  2  1  0
  2  3  1  0
  3  4  1  0
  4  5  1  0
  5  6  2  0
  5  7  1  0
  7  8  2  0
  8  9  1  0
  9 10  2  0
 10 11  1  0
 11 12  2  0
 12 13  1  0
 12  7  1  0
  1 14  1  0
  2 15  1  0
  2 16  1  0
  3 17  1  0
  3 18  1  0
  8 19  1  0
  9 20  1  0
 10 21  1  0
 11 22  1  0
 13 23  1  0
M  END
