
     RDKit          3D

 20 20  0  0  0  0  0  0  0  0999 V2000
    3.9779   -0.6740    0.7112 C   0  0  0  0  0  0  0  0  0  0  0  0
    2.5556   -0.6647    0.6869 O   0  0  0  0  0  0  0  0  0  0  0  0
    1.8185    0.2809   -0.0346 C   0  0  0  0  0  0  0  0  0  0  0  0
    2.4154    1.1726   -0.6993 O   0  0  0  0  0  0  0  0  0  0  0  0
    0.3395    0.2329   -0.0163 C   0  0  0  0  0  0  0  0  0  0  0  0
   -0.4184    1.1738   -0.7345 C   0  0  0  0  0  0  0  0  0  0  0  0
   -1.8153    1.1244   -0.7143 C   0  0  0  0  0  0  0  0  0  0  0  0
   -2.4849    0.1331    0.0246 C   0  0  0  0  0  0  0  0  0  0  0  0
   -1.7262   -0.8068    0.7421 C   0  0  0  0  0  0  0  0  0  0  0  0
   -0.3292   -0.7576    0.7219 C   0  0  0  0  0  0  0  0  0  0  0  0
   -3.9231    0.0790    0.0480 N   0  0  0  0  0  4  0  0  0  0  0  0
   -4.5747   -0.8929    0.7724 O   0  0  0  0  0  1  0  0  0  0  0  0
   -4.6023    0.9118   -0.5878 O   0  0  0  0  0  0  0  0  0  0  0  0
    4.3260   -1.5132    1.3477 H   0  0  0  0  0  0  0  0  0  0  0  0
    4.3747   -0.8132   -0.3168 H   0  0  0  0  0  0  0  0  0  0  0  0
    4.3571    0.2802    1.1343 H   0  0  0  0  0  0  0  0  0  0  0  0
    0.0672    1.9496   -1.3133 H   0  0  0  0  0  0  0  0  0  0  0  0
   -2.3717    1.8628   -1.2774 H   0  0  0  0  0  0  0  0  0  0  0  0
   -2.2121   -1.5819    1.3203 H   0  0  0  0  0  0  0  0  0  0  0  0
    0.2259   -1.4968    1.2857 H   0  0  0  0  0  0  0  0  0  0  0  0
  1  2  1  0
  2  3  1  0
  3  4  2  0
  3  5  1  0
  5  6  2  0
  6  7  1  0
  7  8  2  0
  8  9  1  0
  9 10  2  0
  8 11  1  0
 11 12  1  0
 11 13  2  0
 10  5  1  0
  1 14  1  0
  1 15  1  0
  1 16  1  0
  6 17  1  0
  7 18  1  0
  9 19  1  0
 10 20  1  0
M  CHG  2  11   1  12  -1
M  END
