
     RDKit          3D

 16 16  0  0  0  0  0  0  0  0999 V2000
    2.3747    0.4101    0.0942 C   0  0  0  0  0  0  0  0  0  0  0  0
    0.9286    0.0125    0.0666 C   0  0  0  0  0  0  0  0  0  0  0  0
   -0.0740    0.9947    0.0171 C   0  0  0  0  0  0  0  0  0  0  0  0
   -1.4238    0.6226   -0.0460 C   0  0  0  0  0  0  0  0  0  0  0  0
   -1.7735   -0.7333   -0.0728 C   0  0  0  0  0  0  0  0  0  0  0  0
   -0.7776   -1.7133   -0.0419 C   0  0  0  0  0  0  0  0  0  0  0  0
    0.5692   -1.3438    0.0211 C   0  0  0  0  0  0  0  0  0  0  0  0
   -2.4492    1.6322   -0.0881 C   0  0  0  0  0  0  0  0  0  0  0  0
   -3.2734    2.4438   -0.1220 N   0  0  0  0  0  0  0  0  0  0  0  0
    2.5056    1.3737    0.6313 H   0  0  0  0  0  0  0  0  0  0  0  0
    2.9831   -0.3588    0.6163 H   0  0  0  0  0  0  0  0  0  0  0  0
    2.7467    0.5215   -0.9456 H   0  0  0  0  0  0  0  0  0  0  0  0
    0.1963    2.0446    0.0282 H   0  0  0  0  0  0  0  0  0  0  0  0
   -2.8138   -1.0319   -0.1228 H   0  0  0  0  0  0  0  0  0  0  0  0
   -1.0495   -2.7606   -0.0705 H   0  0  0  0  0  0  0  0  0  0  0  0
    1.3305   -2.1141    0.0350 H   0  0  0  0  0  0  0  0  0  0  0  0
  1  2  1  0
  2  3  2  0
  3  4  1  0
  4  5  2  0
  5  6  1  0
  6  7  2  0
  4  8  1  0
  8  9  3  0
  7  2  1  0
  1 10  1  0
  1 11  1  0
  1 12  1  0
  3 13  1  0
  5 14  1  0
  6 15  1  0
  7 16  1  0
M  END
