
     RDKit          3D

 19 19  0  0  0  0  0  0  0  0999 V2000
   -3.3082    0.2640   -0.1719 C   0  0  0  0  0  0  0  0  0  0  0  0
   -2.2031    0.1849    0.7225 O   0  0  0  0  0  0  0  0  0  0  0  0
   -0.8620    0.0845    0.3204 C   0  0  0  0  0  0  0  0  0  0  0  0
    0.1298    0.0141    1.3090 C   0  0  0  0  0  0  0  0  0  0  0  0
   -0.2363    0.0451    2.6537 O   0  0  0  0  0  0  0  0  0  0  0  0
    1.4811   -0.0869    0.9472 C   0  0  0  0  0  0  0  0  0  0  0  0
    1.8548   -0.1186   -0.4064 C   0  0  0  0  0  0  0  0  0  0  0  0
    3.2707   -0.2245   -0.8046 C   0  0  0  0  0  0  0  0  0  0  0  0
    4.1864   -0.2896    0.0582 O   0  0  0  0  0  0  0  0  0  0  0  0
    0.8617   -0.0481   -1.3930 C   0  0  0  0  0  0  0  0  0  0  0  0
   -0.4855    0.0526   -1.0358 C   0  0  0  0  0  0  0  0  0  0  0  0
   -3.3535   -0.6476   -0.8045 H   0  0  0  0  0  0  0  0  0  0  0  0
   -4.2460    0.3350    0.4162 H   0  0  0  0  0  0  0  0  0  0  0  0
   -3.2192    1.1686   -0.8098 H   0  0  0  0  0  0  0  0  0  0  0  0
    0.4547   -0.0038    3.3933 H   0  0  0  0  0  0  0  0  0  0  0  0
    2.2342   -0.1403    1.7237 H   0  0  0  0  0  0  0  0  0  0  0  0
    3.5376   -0.2473   -1.8536 H   0  0  0  0  0  0  0  0  0  0  0  0
    1.1289   -0.0709   -2.4427 H   0  0  0  0  0  0  0  0  0  0  0  0
   -1.2260    0.1051   -1.8221 H   0  0  0  0  0  0  0  0  0  0  0  0
  1  2  1  0
  2  3  1  0
  3  4  2  0
  4  5  1  0
  4  6  1  0
  6  7  2  0
  7  8  1  0
  8  9  2  0
  7 10  1  0
 10 11  2  0
 11  3  1  0
  1 12  1  0
  1 13  1  0
  1 14  1  0
  5 15  1  0
  6 16  1  0
  8 17  1  0
 10 18  1  0
 11 19  1  0
M  END
