
     RDKit          3D

 20 20  0  0  0  0  0  0  0  0999 V2000
   -2.3772   -1.0806    0.0784 C   0  0  0  0  0  0  0  0  0  0  0  0
   -1.2289   -0.1071    0.0366 C   0  0  0  0  0  0  0  0  0  0  0  0
    0.1184   -0.5515    0.0013 C   0  0  0  0  0  0  0  0  0  0  0  0
    0.4207   -1.9592    0.0045 N   0  0  0  0  0  0  0  0  0  0  0  0
    1.1646    0.4067   -0.0373 C   0  0  0  0  0  0  0  0  0  0  0  0
    0.8526    1.7757   -0.0400 C   0  0  0  0  0  0  0  0  0  0  0  0
   -0.4727    2.2010   -0.0051 C   0  0  0  0  0  0  0  0  0  0  0  0
   -1.5065    1.2693    0.0330 C   0  0  0  0  0  0  0  0  0  0  0  0
    2.6113   -0.0096   -0.0758 C   0  0  0  0  0  0  0  0  0  0  0  0
   -3.3585   -0.5602    0.1024 H   0  0  0  0  0  0  0  0  0  0  0  0
   -2.3566   -1.7259   -0.8249 H   0  0  0  0  0  0  0  0  0  0  0  0
   -2.3038   -1.7104    0.9898 H   0  0  0  0  0  0  0  0  0  0  0  0
    1.4005   -2.3154   -0.0209 H   0  0  0  0  0  0  0  0  0  0  0  0
   -0.3264   -2.6862    0.0325 H   0  0  0  0  0  0  0  0  0  0  0  0
    1.6382    2.5208   -0.0692 H   0  0  0  0  0  0  0  0  0  0  0  0
   -0.7000    3.2594   -0.0075 H   0  0  0  0  0  0  0  0  0  0  0  0
   -2.5288    1.6262    0.0596 H   0  0  0  0  0  0  0  0  0  0  0  0
    3.2925    0.8676   -0.1031 H   0  0  0  0  0  0  0  0  0  0  0  0
    2.8566   -0.6026    0.8303 H   0  0  0  0  0  0  0  0  0  0  0  0
    2.8039   -0.6181   -0.9844 H   0  0  0  0  0  0  0  0  0  0  0  0
  1  2  1  0
  2  3  2  0
  3  4  1  0
  3  5  1  0
  5  6  2  0
  6  7  1  0
  7  8  2  0
  5  9  1  0
  8  2  1  0
  1 10  1  0
  1 11  1  0
  1 12  1  0
  4 13  1  0
  4 14  1  0
  6 15  1  0
  7 16  1  0
  8 17  1  0
  9 18  1  0
  9 19  1  0
  9 20  1  0
M  END
