
     RDKit          3D

 17 17  0  0  0  0  0  0  0  0999 V2000
    3.6577   -0.4489   -0.4608 N   0  0  0  0  0  0  0  0  0  0  0  0
    2.4027   -0.0196    0.0596 C   0  0  0  0  0  0  0  0  0  0  0  0
    2.3563    0.9846    0.8202 O   0  0  0  0  0  0  0  0  0  0  0  0
    1.2486   -0.7560   -0.2374 O   0  0  0  0  0  0  0  0  0  0  0  0
   -0.0692   -0.3207   -0.0303 C   0  0  0  0  0  0  0  0  0  0  0  0
   -1.0618   -1.2834    0.1958 C   0  0  0  0  0  0  0  0  0  0  0  0
   -2.3906   -0.8977    0.3979 C   0  0  0  0  0  0  0  0  0  0  0  0
   -2.7397    0.4547    0.3630 C   0  0  0  0  0  0  0  0  0  0  0  0
   -1.7616    1.4219    0.1181 C   0  0  0  0  0  0  0  0  0  0  0  0
   -0.4313    1.0397   -0.0834 C   0  0  0  0  0  0  0  0  0  0  0  0
    4.5325    0.0746   -0.2348 H   0  0  0  0  0  0  0  0  0  0  0  0
    3.7105   -1.2913   -1.0750 H   0  0  0  0  0  0  0  0  0  0  0  0
   -0.8000   -2.3336    0.2230 H   0  0  0  0  0  0  0  0  0  0  0  0
   -3.1497   -1.6475    0.5799 H   0  0  0  0  0  0  0  0  0  0  0  0
   -3.7689    0.7523    0.5172 H   0  0  0  0  0  0  0  0  0  0  0  0
   -2.0358    2.4682    0.0752 H   0  0  0  0  0  0  0  0  0  0  0  0
    0.3003    1.8029   -0.3095 H   0  0  0  0  0  0  0  0  0  0  0  0
  1  2  1  0
  2  3  2  0
  2  4  1  0
  4  5  1  0
  5  6  2  0
  6  7  1  0
  7  8  2  0
  8  9  1  0
  9 10  2  0
 10  5  1  0
  1 11  1  0
  1 12  1  0
  6 13  1  0
  7 14  1  0
  8 15  1  0
  9 16  1  0
 10 17  1  0
M  END
