
     RDKit          3D

 13 13  0  0  0  0  0  0  0  0999 V2000
    3.3990   -0.3032   -0.4101 Cl  0  0  0  0  0  0  0  0  0  0  0  0
    1.6643   -0.1485   -0.2008 C   0  0  0  0  0  0  0  0  0  0  0  0
    0.8437   -1.2783   -0.2953 C   0  0  0  0  0  0  0  0  0  0  0  0
   -0.5398   -1.1559   -0.1285 C   0  0  0  0  0  0  0  0  0  0  0  0
   -1.1067    0.0987    0.1335 C   0  0  0  0  0  0  0  0  0  0  0  0
   -0.2840    1.2294    0.2279 C   0  0  0  0  0  0  0  0  0  0  0  0
    1.0993    1.1049    0.0608 C   0  0  0  0  0  0  0  0  0  0  0  0
   -2.5302    0.2257    0.3053 C   0  0  0  0  0  0  0  0  0  0  0  0
   -3.6747    0.3278    0.4434 N   0  0  0  0  0  0  0  0  0  0  0  0
    1.2760   -2.2500   -0.4975 H   0  0  0  0  0  0  0  0  0  0  0  0
   -1.1658   -2.0369   -0.2036 H   0  0  0  0  0  0  0  0  0  0  0  0
   -0.7109    2.2044    0.4301 H   0  0  0  0  0  0  0  0  0  0  0  0
    1.7298    1.9818    0.1348 H   0  0  0  0  0  0  0  0  0  0  0  0
  1  2  1  0
  2  3  2  0
  3  4  1  0
  4  5  2  0
  5  6  1  0
  6  7  2  0
  5  8  1  0
  8  9  3  0
  7  2  1  0
  3 10  1  0
  4 11  1  0
  6 12  1  0
  7 13  1  0
M  END
