
     RDKit          3D

 16 16  0  0  0  0  0  0  0  0999 V2000
   -2.7745   -0.3711    0.2855 C   0  0  0  0  0  0  0  0  0  0  0  0
   -1.7962    0.6384    0.0586 O   0  0  0  0  0  0  0  0  0  0  0  0
   -0.4246    0.3902   -0.0994 C   0  0  0  0  0  0  0  0  0  0  0  0
    0.1197   -0.9086   -0.0465 C   0  0  0  0  0  0  0  0  0  0  0  0
    1.4951   -1.1024   -0.2103 C   0  0  0  0  0  0  0  0  0  0  0  0
    2.3377   -0.0077   -0.4274 C   0  0  0  0  0  0  0  0  0  0  0  0
    4.0623   -0.2535   -0.6324 Cl  0  0  0  0  0  0  0  0  0  0  0  0
    1.8031    1.2832   -0.4808 C   0  0  0  0  0  0  0  0  0  0  0  0
    0.4284    1.4797   -0.3174 C   0  0  0  0  0  0  0  0  0  0  0  0
   -2.7926   -1.0835   -0.5661 H   0  0  0  0  0  0  0  0  0  0  0  0
   -3.7728    0.1045    0.3722 H   0  0  0  0  0  0  0  0  0  0  0  0
   -2.5543   -0.9105    1.2309 H   0  0  0  0  0  0  0  0  0  0  0  0
   -0.5097   -1.7721    0.1201 H   0  0  0  0  0  0  0  0  0  0  0  0
    1.9045   -2.1038   -0.1682 H   0  0  0  0  0  0  0  0  0  0  0  0
    2.4507    2.1344   -0.6486 H   0  0  0  0  0  0  0  0  0  0  0  0
    0.0233    2.4828   -0.3603 H   0  0  0  0  0  0  0  0  0  0  0  0
  1  2  1  0
  2  3  1  0
  3  4  2  0
  4  5  1  0
  5  6  2  0
  6  7  1  0
  6  8  1  0
  8  9  2  0
  9  3  1  0
  1 10  1  0
  1 11  1  0
  1 12  1  0
  4 13  1  0
  5 14  1  0
  8 15  1  0
  9 16  1  0
M  END
