
     RDKit          3D

 20 19  0  0  0  0  0  0  0  0999 V2000
   -2.7512    1.0184   -0.1108 C   0  0  0  0  0  0  0  0  0  0  0  0
   -2.3140   -0.4184    0.1730 C   0  0  0  0  0  0  0  0  0  0  0  0
   -0.8112   -0.5342    0.4707 C   0  0  0  0  0  0  0  0  0  0  0  0
    0.0550   -0.3018   -0.7737 C   0  0  0  0  0  0  0  0  0  0  0  0
    1.4974   -0.5359   -0.4545 C   0  0  0  0  0  0  0  0  0  0  0  0
    2.0019   -1.6781   -0.6339 O   0  0  0  0  0  0  0  0  0  0  0  0
    2.2605    0.5050    0.0822 O   0  0  0  0  0  0  0  0  0  0  0  0
    3.6298    0.3481    0.4336 C   0  0  0  0  0  0  0  0  0  0  0  0
   -3.8571    1.0556   -0.2030 H   0  0  0  0  0  0  0  0  0  0  0  0
   -2.3135    1.3821   -1.0633 H   0  0  0  0  0  0  0  0  0  0  0  0
   -2.4435    1.6898    0.7189 H   0  0  0  0  0  0  0  0  0  0  0  0
   -2.5852   -1.0676   -0.6878 H   0  0  0  0  0  0  0  0  0  0  0  0
   -2.8763   -0.7842    1.0594 H   0  0  0  0  0  0  0  0  0  0  0  0
   -0.5288    0.1869    1.2695 H   0  0  0  0  0  0  0  0  0  0  0  0
   -0.6161   -1.5589    0.8574 H   0  0  0  0  0  0  0  0  0  0  0  0
   -0.2592   -0.9888   -1.5897 H   0  0  0  0  0  0  0  0  0  0  0  0
   -0.0614    0.7421   -1.1331 H   0  0  0  0  0  0  0  0  0  0  0  0
    4.2227    0.0676   -0.4626 H   0  0  0  0  0  0  0  0  0  0  0  0
    3.7346   -0.4356    1.2136 H   0  0  0  0  0  0  0  0  0  0  0  0
    4.0157    1.3079    0.8342 H   0  0  0  0  0  0  0  0  0  0  0  0
  1  2  1  0
  2  3  1  0
  3  4  1  0
  4  5  1  0
  5  6  2  0
  5  7  1  0
  7  8  1  0
  1  9  1  0
  1 10  1  0
  1 11  1  0
  2 12  1  0
  2 13  1  0
  3 14  1  0
  3 15  1  0
  4 16  1  0
  4 17  1  0
  8 18  1  0
  8 19  1  0
  8 20  1  0
M  END
