
     RDKit          3D

 30 29  0  0  0  0  0  0  0  0999 V2000
   -4.2051   -0.5337   -0.1764 C   0  0  0  0  0  0  0  0  0  0  0  0
   -2.9480    0.3304   -0.2169 C   0  0  0  0  0  0  0  0  0  0  0  0
   -2.0059   -0.0086    0.9472 C   0  0  0  0  0  0  0  0  0  0  0  0
   -0.8098    0.9548    1.0535 C   0  0  0  0  0  0  0  0  0  0  0  0
    0.0967    1.0278   -0.1944 C   0  0  0  0  0  0  0  0  0  0  0  0
    0.7190   -0.3153   -0.6271 C   0  0  0  0  0  0  0  0  0  0  0  0
    1.8014   -0.8473    0.3487 C   0  0  0  0  0  0  0  0  0  0  0  0
    1.5841   -2.2208    0.5518 O   0  0  0  0  0  0  0  0  0  0  0  0
    3.2333   -0.6442   -0.1925 C   0  0  0  0  0  0  0  0  0  0  0  0
    3.6307    0.8283   -0.2899 C   0  0  0  0  0  0  0  0  0  0  0  0
   -3.9356   -1.6094   -0.2432 H   0  0  0  0  0  0  0  0  0  0  0  0
   -4.8603   -0.2775   -1.0355 H   0  0  0  0  0  0  0  0  0  0  0  0
   -4.7678   -0.3538    0.7644 H   0  0  0  0  0  0  0  0  0  0  0  0
   -2.4342    0.1521   -1.1853 H   0  0  0  0  0  0  0  0  0  0  0  0
   -3.2448    1.4004   -0.1628 H   0  0  0  0  0  0  0  0  0  0  0  0
   -1.6516   -1.0573    0.8614 H   0  0  0  0  0  0  0  0  0  0  0  0
   -2.5755    0.0596    1.9000 H   0  0  0  0  0  0  0  0  0  0  0  0
   -1.1983    1.9766    1.2570 H   0  0  0  0  0  0  0  0  0  0  0  0
   -0.2073    0.6700    1.9407 H   0  0  0  0  0  0  0  0  0  0  0  0
    0.9071    1.7592    0.0076 H   0  0  0  0  0  0  0  0  0  0  0  0
   -0.4860    1.4423   -1.0441 H   0  0  0  0  0  0  0  0  0  0  0  0
   -0.0856   -1.0675   -0.7625 H   0  0  0  0  0  0  0  0  0  0  0  0
    1.1519   -0.1837   -1.6427 H   0  0  0  0  0  0  0  0  0  0  0  0
    1.7255   -0.3251    1.3293 H   0  0  0  0  0  0  0  0  0  0  0  0
    2.0586   -2.4714    1.3877 H   0  0  0  0  0  0  0  0  0  0  0  0
    3.3364   -1.1226   -1.1909 H   0  0  0  0  0  0  0  0  0  0  0  0
    3.9499   -1.1470    0.4932 H   0  0  0  0  0  0  0  0  0  0  0  0
    4.7043    0.9034   -0.5632 H   0  0  0  0  0  0  0  0  0  0  0  0
    3.4780    1.3378    0.6852 H   0  0  0  0  0  0  0  0  0  0  0  0
    3.0390    1.3425   -1.0753 H   0  0  0  0  0  0  0  0  0  0  0  0
  1  2  1  0
  2  3  1  0
  3  4  1  0
  4  5  1  0
  5  6  1  0
  6  7  1  0
  7  8  1  0
  7  9  1  0
  9 10  1  0
  1 11  1  0
  1 12  1  0
  1 13  1  0
  2 14  1  0
  2 15  1  0
  3 16  1  0
  3 17  1  0
  4 18  1  0
  4 19  1  0
  5 20  1  0
  5 21  1  0
  6 22  1  0
  6 23  1  0
  7 24  1  0
  8 25  1  0
  9 26  1  0
  9 27  1  0
 10 28  1  0
 10 29  1  0
 10 30  1  0
M  END
