
     RDKit          3D

 21 20  0  0  0  0  0  0  0  0999 V2000
   -1.8163    0.7225   -0.5918 C   0  0  0  0  0  0  0  0  0  0  0  0
   -0.6115   -0.0249    0.0182 C   0  0  0  0  0  0  0  0  0  0  0  0
   -0.5787   -1.4546   -0.5626 C   0  0  0  0  0  0  0  0  0  0  0  0
   -0.8039   -0.0946    1.5481 C   0  0  0  0  0  0  0  0  0  0  0  0
    0.6830    0.7604   -0.3504 C   0  0  0  0  0  0  0  0  0  0  0  0
    1.9942    0.1555    0.1800 C   0  0  0  0  0  0  0  0  0  0  0  0
    3.0783    0.9622   -0.1931 O   0  0  0  0  0  0  0  0  0  0  0  0
   -1.8818    1.7566   -0.1891 H   0  0  0  0  0  0  0  0  0  0  0  0
   -1.7212    0.7844   -1.6977 H   0  0  0  0  0  0  0  0  0  0  0  0
   -2.7687    0.1996   -0.3563 H   0  0  0  0  0  0  0  0  0  0  0  0
   -1.5564   -1.9609   -0.4092 H   0  0  0  0  0  0  0  0  0  0  0  0
    0.1954   -2.0748   -0.0646 H   0  0  0  0  0  0  0  0  0  0  0  0
   -0.3667   -1.4296   -1.6532 H   0  0  0  0  0  0  0  0  0  0  0  0
   -0.7543    0.9214    1.9959 H   0  0  0  0  0  0  0  0  0  0  0  0
   -0.0285   -0.7306    2.0238 H   0  0  0  0  0  0  0  0  0  0  0  0
   -1.7925   -0.5375    1.7976 H   0  0  0  0  0  0  0  0  0  0  0  0
    0.6028    1.8002    0.0381 H   0  0  0  0  0  0  0  0  0  0  0  0
    0.7600    0.8347   -1.4581 H   0  0  0  0  0  0  0  0  0  0  0  0
    2.1442   -0.8756   -0.2088 H   0  0  0  0  0  0  0  0  0  0  0  0
    1.9723    0.1090    1.2875 H   0  0  0  0  0  0  0  0  0  0  0  0
    3.2502    0.7825   -1.1544 H   0  0  0  0  0  0  0  0  0  0  0  0
  1  2  1  0
  2  3  1  0
  2  4  1  0
  2  5  1  0
  5  6  1  0
  6  7  1  0
  1  8  1  0
  1  9  1  0
  1 10  1  0
  3 11  1  0
  3 12  1  0
  3 13  1  0
  4 14  1  0
  4 15  1  0
  4 16  1  0
  5 17  1  0
  5 18  1  0
  6 19  1  0
  6 20  1  0
  7 21  1  0
M  END
