
     RDKit          3D

 16 15  0  0  0  0  0  0  0  0999 V2000
   -2.0234   -0.1657    0.4125 C   0  0  0  0  0  0  0  0  0  0  0  0
   -0.6401   -0.4961   -0.1574 C   0  0  0  0  0  0  0  0  0  0  0  0
   -0.7659   -1.1897   -1.3744 O   0  0  0  0  0  0  0  0  0  0  0  0
    0.2061    0.7800   -0.3325 C   0  0  0  0  0  0  0  0  0  0  0  0
    1.5787    0.4692   -0.8658 C   0  0  0  0  0  0  0  0  0  0  0  0
    2.5007   -0.1466   -0.1199 C   0  0  0  0  0  0  0  0  0  0  0  0
   -1.9225    0.3156    1.4086 H   0  0  0  0  0  0  0  0  0  0  0  0
   -2.6137   -1.0991    0.5310 H   0  0  0  0  0  0  0  0  0  0  0  0
   -2.5730    0.5212   -0.2661 H   0  0  0  0  0  0  0  0  0  0  0  0
   -0.1311   -1.1660    0.5692 H   0  0  0  0  0  0  0  0  0  0  0  0
   -1.2203   -0.5858   -2.0189 H   0  0  0  0  0  0  0  0  0  0  0  0
    0.3031    1.3097    0.6407 H   0  0  0  0  0  0  0  0  0  0  0  0
   -0.3033    1.4688   -1.0412 H   0  0  0  0  0  0  0  0  0  0  0  0
    1.8355    0.7811   -1.8739 H   0  0  0  0  0  0  0  0  0  0  0  0
    3.4862   -0.3443   -0.5289 H   0  0  0  0  0  0  0  0  0  0  0  0
    2.2830   -0.4524    0.8989 H   0  0  0  0  0  0  0  0  0  0  0  0
  1  2  1  0
  2  3  1  0
  2  4  1  0
  4  5  1  0
  5  6  2  3
  1  7  1  0
  1  8  1  0
  1  9  1  0
  2 10  1  0
  3 11  1  0
  4 12  1  0
  4 13  1  0
  5 14  1  0
  6 15  1  0
  6 16  1  0
M  END
