
     RDKit          3D

 15 14  0  0  0  0  0  0  0  0999 V2000
    2.3763    0.3108   -0.6760 C   0  0  0  0  0  0  0  0  0  0  0  0
    1.1953   -0.5814   -0.3086 C   0  0  0  0  0  0  0  0  0  0  0  0
   -0.0631    0.1609   -0.3743 N   0  0  0  0  0  0  0  0  0  0  0  0
   -1.3162   -0.4636   -0.0701 C   0  0  0  0  0  0  0  0  0  0  0  0
   -2.5822    0.3253   -0.1535 C   0  0  0  0  0  0  0  0  0  0  0  0
   -1.3599   -1.6821    0.2514 O   0  0  0  0  0  0  0  0  0  0  0  0
    2.4427    1.1664    0.0293 H   0  0  0  0  0  0  0  0  0  0  0  0
    2.2565    0.6962   -1.7108 H   0  0  0  0  0  0  0  0  0  0  0  0
    3.3183   -0.2743   -0.6187 H   0  0  0  0  0  0  0  0  0  0  0  0
    1.3416   -0.9710    0.7220 H   0  0  0  0  0  0  0  0  0  0  0  0
    1.1558   -1.4398   -1.0135 H   0  0  0  0  0  0  0  0  0  0  0  0
   -0.0619    1.1703   -0.6480 H   0  0  0  0  0  0  0  0  0  0  0  0
   -2.4861    1.2503    0.4526 H   0  0  0  0  0  0  0  0  0  0  0  0
   -3.4390   -0.2679    0.2312 H   0  0  0  0  0  0  0  0  0  0  0  0
   -2.7779    0.5999   -1.2109 H   0  0  0  0  0  0  0  0  0  0  0  0
  1  2  1  0
  2  3  1  0
  3  4  1  0
  4  5  1  0
  4  6  2  0
  1  7  1  0
  1  8  1  0
  1  9  1  0
  2 10  1  0
  2 11  1  0
  3 12  1  0
  5 13  1  0
  5 14  1  0
  5 15  1  0
M  END
