
     RDKit          3D

 14 14  0  0  0  0  0  0  0  0999 V2000
   -2.2425   -0.5826   -0.4844 N   0  0  0  0  0  0  0  0  0  0  0  0
   -0.8978   -0.1939   -0.1915 C   0  0  0  0  0  0  0  0  0  0  0  0
   -0.5716    1.1623   -0.0418 C   0  0  0  0  0  0  0  0  0  0  0  0
    0.7438    1.5410    0.2447 C   0  0  0  0  0  0  0  0  0  0  0  0
    1.7386    0.5688    0.3828 C   0  0  0  0  0  0  0  0  0  0  0  0
    1.4197   -0.7852    0.2347 C   0  0  0  0  0  0  0  0  0  0  0  0
    0.1039   -1.1664   -0.0519 C   0  0  0  0  0  0  0  0  0  0  0  0
    2.9215   -2.2513    0.4434 I   0  0  0  0  0  0  0  0  0  0  0  0
   -2.4953   -1.5896   -0.5977 H   0  0  0  0  0  0  0  0  0  0  0  0
   -2.9950    0.1339   -0.5901 H   0  0  0  0  0  0  0  0  0  0  0  0
   -1.3347    1.9232   -0.1468 H   0  0  0  0  0  0  0  0  0  0  0  0
    0.9919    2.5882    0.3595 H   0  0  0  0  0  0  0  0  0  0  0  0
    2.7550    0.8673    0.6045 H   0  0  0  0  0  0  0  0  0  0  0  0
   -0.1377   -2.2157   -0.1656 H   0  0  0  0  0  0  0  0  0  0  0  0
  1  2  1  0
  2  3  2  0
  3  4  1  0
  4  5  2  0
  5  6  1  0
  6  7  2  0
  6  8  1  0
  7  2  1  0
  1  9  1  0
  1 10  1  0
  3 11  1  0
  4 12  1  0
  5 13  1  0
  7 14  1  0
M  END
