
     RDKit          3D

 21 20  0  0  0  0  0  0  0  0999 V2000
    3.2548    0.4023    0.1102 C   0  0  0  0  0  0  0  0  0  0  0  0
    1.9914   -0.4466    0.0015 C   0  0  0  0  0  0  0  0  0  0  0  0
    0.7321    0.4083    0.1844 C   0  0  0  0  0  0  0  0  0  0  0  0
   -0.5358   -0.4497    0.0764 C   0  0  0  0  0  0  0  0  0  0  0  0
   -1.8127    0.4010    0.2245 C   0  0  0  0  0  0  0  0  0  0  0  0
   -3.0696   -0.4496    0.0135 C   0  0  0  0  0  0  0  0  0  0  0  0
   -1.8583    1.0343    1.4792 O   0  0  0  0  0  0  0  0  0  0  0  0
    4.1486   -0.2423   -0.0265 H   0  0  0  0  0  0  0  0  0  0  0  0
    3.3126    0.8820    1.1105 H   0  0  0  0  0  0  0  0  0  0  0  0
    3.2603    1.1883   -0.6748 H   0  0  0  0  0  0  0  0  0  0  0  0
    1.9717   -0.9349   -0.9972 H   0  0  0  0  0  0  0  0  0  0  0  0
    2.0229   -1.2393    0.7806 H   0  0  0  0  0  0  0  0  0  0  0  0
    0.7649    0.8976    1.1826 H   0  0  0  0  0  0  0  0  0  0  0  0
    0.7086    1.1998   -0.5969 H   0  0  0  0  0  0  0  0  0  0  0  0
   -0.5186   -1.2387    0.8606 H   0  0  0  0  0  0  0  0  0  0  0  0
   -0.5479   -0.9511   -0.9167 H   0  0  0  0  0  0  0  0  0  0  0  0
   -1.8054    1.1897   -0.5594 H   0  0  0  0  0  0  0  0  0  0  0  0
   -3.1136   -1.2740    0.7570 H   0  0  0  0  0  0  0  0  0  0  0  0
   -3.9751    0.1834    0.1272 H   0  0  0  0  0  0  0  0  0  0  0  0
   -3.0713   -0.8850   -1.0085 H   0  0  0  0  0  0  0  0  0  0  0  0
   -1.8596    0.3245    2.1741 H   0  0  0  0  0  0  0  0  0  0  0  0
  1  2  1  0
  2  3  1  0
  3  4  1  0
  4  5  1  0
  5  6  1  0
  5  7  1  0
  1  8  1  0
  1  9  1  0
  1 10  1  0
  2 11  1  0
  2 12  1  0
  3 13  1  0
  3 14  1  0
  4 15  1  0
  4 16  1  0
  5 17  1  0
  6 18  1  0
  6 19  1  0
  6 20  1  0
  7 21  1  0
M  END
