
     RDKit          3D

 14 14  0  0  0  0  0  0  0  0999 V2000
   -2.8070   -0.0350   -0.0525 O   0  0  0  0  0  0  0  0  0  0  0  0
   -1.4106    0.0166   -0.0442 C   0  0  0  0  0  0  0  0  0  0  0  0
   -0.6412   -1.0218    0.5179 C   0  0  0  0  0  0  0  0  0  0  0  0
   -1.4325   -2.4282    1.2330 Cl  0  0  0  0  0  0  0  0  0  0  0  0
    0.7640   -0.9381    0.5096 C   0  0  0  0  0  0  0  0  0  0  0  0
    1.3980    0.1839   -0.0609 C   0  0  0  0  0  0  0  0  0  0  0  0
    2.7905    0.2983   -0.0856 O   0  0  0  0  0  0  0  0  0  0  0  0
    0.6272    1.2136   -0.6185 C   0  0  0  0  0  0  0  0  0  0  0  0
   -0.7740    1.1302   -0.6102 C   0  0  0  0  0  0  0  0  0  0  0  0
   -1.7516    2.4200   -1.3090 Cl  0  0  0  0  0  0  0  0  0  0  0  0
    1.4365    2.6098   -1.3278 Cl  0  0  0  0  0  0  0  0  0  0  0  0
    1.7249   -2.2402    1.2143 Cl  0  0  0  0  0  0  0  0  0  0  0  0
   -3.3347   -0.8054    0.3369 H   0  0  0  0  0  0  0  0  0  0  0  0
    3.4105   -0.4038    0.2970 H   0  0  0  0  0  0  0  0  0  0  0  0
  1  2  1  0
  2  3  2  0
  3  4  1  0
  3  5  1  0
  5  6  2  0
  6  7  1  0
  6  8  1  0
  8  9  2  0
  9 10  1  0
  8 11  1  0
  5 12  1  0
  9  2  1  0
  1 13  1  0
  7 14  1  0
M  END
