
     RDKit          3D

 13 12  0  0  0  0  0  0  0  0999 V2000
   -1.4430    1.0095   -0.1863 C   0  0  0  0  0  0  0  0  0  0  0  0
   -0.7281   -0.0122    0.6963 C   0  0  0  0  0  0  0  0  0  0  0  0
    0.2719   -0.8577   -0.0965 C   0  0  0  0  0  0  0  0  0  0  0  0
    1.3639   -0.0240   -0.5907 N   0  0  0  0  0  0  0  0  0  0  0  0
    2.5745   -0.2357   -0.2616 C   0  0  0  0  0  0  0  0  0  0  0  0
    4.1072   -0.5042    0.1562 S   0  0  0  0  0  0  0  0  0  0  0  0
   -2.1786    1.5752    0.4234 H   0  0  0  0  0  0  0  0  0  0  0  0
   -0.7152    1.7292   -0.6172 H   0  0  0  0  0  0  0  0  0  0  0  0
   -1.9846    0.4969   -1.0096 H   0  0  0  0  0  0  0  0  0  0  0  0
   -1.4877   -0.6850    1.1499 H   0  0  0  0  0  0  0  0  0  0  0  0
   -0.2003    0.5150    1.5206 H   0  0  0  0  0  0  0  0  0  0  0  0
   -0.2381   -1.3385   -0.9586 H   0  0  0  0  0  0  0  0  0  0  0  0
    0.6580   -1.6684    0.5631 H   0  0  0  0  0  0  0  0  0  0  0  0
  1  2  1  0
  2  3  1  0
  3  4  1  0
  4  5  2  0
  5  6  2  0
  1  7  1  0
  1  8  1  0
  1  9  1  0
  2 10  1  0
  2 11  1  0
  3 12  1  0
  3 13  1  0
M  END
