
     RDKit          3D

 23 22  0  0  0  0  0  0  0  0999 V2000
    3.6744    0.8478   -0.0155 C   0  0  0  0  0  0  0  0  0  0  0  0
    2.1541    0.7790    0.0977 C   0  0  0  0  0  0  0  0  0  0  0  0
    1.6626   -0.6754    0.0626 C   0  0  0  0  0  0  0  0  0  0  0  0
    0.1491   -0.7917    0.3001 C   0  0  0  0  0  0  0  0  0  0  0  0
   -0.6776   -0.2733   -0.8837 C   0  0  0  0  0  0  0  0  0  0  0  0
   -2.0604   -0.5652   -0.6907 O   0  0  0  0  0  0  0  0  0  0  0  0
   -2.8776    0.1357    0.2034 C   0  0  0  0  0  0  0  0  0  0  0  0
   -4.3062   -0.2615    0.3571 C   0  0  0  0  0  0  0  0  0  0  0  0
   -2.4340    1.1281    0.8426 O   0  0  0  0  0  0  0  0  0  0  0  0
    4.0010    1.9090    0.0034 H   0  0  0  0  0  0  0  0  0  0  0  0
    4.1499    0.3154    0.8357 H   0  0  0  0  0  0  0  0  0  0  0  0
    4.0111    0.3893   -0.9697 H   0  0  0  0  0  0  0  0  0  0  0  0
    1.8437    1.2592    1.0512 H   0  0  0  0  0  0  0  0  0  0  0  0
    1.7139    1.3509   -0.7461 H   0  0  0  0  0  0  0  0  0  0  0  0
    2.1799   -1.2485    0.8632 H   0  0  0  0  0  0  0  0  0  0  0  0
    1.9288   -1.1423   -0.9112 H   0  0  0  0  0  0  0  0  0  0  0  0
   -0.0973   -1.8646    0.4560 H   0  0  0  0  0  0  0  0  0  0  0  0
   -0.1289   -0.2465    1.2277 H   0  0  0  0  0  0  0  0  0  0  0  0
   -0.3439   -0.7799   -1.8141 H   0  0  0  0  0  0  0  0  0  0  0  0
   -0.5408    0.8209   -1.0181 H   0  0  0  0  0  0  0  0  0  0  0  0
   -4.4339   -1.3300    0.0842 H   0  0  0  0  0  0  0  0  0  0  0  0
   -4.9373    0.3628   -0.3090 H   0  0  0  0  0  0  0  0  0  0  0  0
   -4.6306   -0.1193    1.4096 H   0  0  0  0  0  0  0  0  0  0  0  0
  1  2  1  0
  2  3  1  0
  3  4  1  0
  4  5  1  0
  5  6  1  0
  6  7  1  0
  7  8  1  0
  7  9  2  0
  1 10  1  0
  1 11  1  0
  1 12  1  0
  2 13  1  0
  2 14  1  0
  3 15  1  0
  3 16  1  0
  4 17  1  0
  4 18  1  0
  5 19  1  0
  5 20  1  0
  8 21  1  0
  8 22  1  0
  8 23  1  0
M  END
