
     RDKit          3D

 23 22  0  0  0  0  0  0  0  0999 V2000
    3.1004   -0.7220   -0.0975 C   0  0  0  0  0  0  0  0  0  0  0  0
    1.9099    0.2154   -0.2772 C   0  0  0  0  0  0  0  0  0  0  0  0
    0.8848    0.0298    0.8506 C   0  0  0  0  0  0  0  0  0  0  0  0
   -0.2562    1.0611    0.7956 C   0  0  0  0  0  0  0  0  0  0  0  0
   -1.1200    1.0116   -0.4810 C   0  0  0  0  0  0  0  0  0  0  0  0
   -1.7597   -0.3567   -0.7890 C   0  0  0  0  0  0  0  0  0  0  0  0
   -2.6793   -0.8863    0.3173 C   0  0  0  0  0  0  0  0  0  0  0  0
   -4.2219    0.2606    0.5883 Br  0  0  0  0  0  0  0  0  0  0  0  0
    2.7619   -1.7801   -0.1024 H   0  0  0  0  0  0  0  0  0  0  0  0
    3.6205   -0.5072    0.8604 H   0  0  0  0  0  0  0  0  0  0  0  0
    3.8188   -0.5749   -0.9314 H   0  0  0  0  0  0  0  0  0  0  0  0
    1.4389   -0.0031   -1.2589 H   0  0  0  0  0  0  0  0  0  0  0  0
    2.2765    1.2649   -0.2847 H   0  0  0  0  0  0  0  0  0  0  0  0
    0.4741   -1.0018    0.8279 H   0  0  0  0  0  0  0  0  0  0  0  0
    1.4013    0.1516    1.8280 H   0  0  0  0  0  0  0  0  0  0  0  0
   -0.9061    0.9256    1.6859 H   0  0  0  0  0  0  0  0  0  0  0  0
    0.1800    2.0802    0.8822 H   0  0  0  0  0  0  0  0  0  0  0  0
   -0.5029    1.3176   -1.3522 H   0  0  0  0  0  0  0  0  0  0  0  0
   -1.9205    1.7765   -0.3909 H   0  0  0  0  0  0  0  0  0  0  0  0
   -0.9658   -1.1055   -0.9935 H   0  0  0  0  0  0  0  0  0  0  0  0
   -2.3531   -0.2630   -1.7241 H   0  0  0  0  0  0  0  0  0  0  0  0
   -2.1282   -1.0053    1.2723 H   0  0  0  0  0  0  0  0  0  0  0  0
   -3.0534   -1.8890    0.0213 H   0  0  0  0  0  0  0  0  0  0  0  0
  1  2  1  0
  2  3  1  0
  3  4  1  0
  4  5  1  0
  5  6  1  0
  6  7  1  0
  7  8  1  0
  1  9  1  0
  1 10  1  0
  1 11  1  0
  2 12  1  0
  2 13  1  0
  3 14  1  0
  3 15  1  0
  4 16  1  0
  4 17  1  0
  5 18  1  0
  5 19  1  0
  6 20  1  0
  6 21  1  0
  7 22  1  0
  7 23  1  0
M  END
