
     RDKit          3D

 21 20  0  0  0  0  0  0  0  0999 V2000
   -2.4627    1.1201    0.3578 C   0  0  0  0  0  0  0  0  0  0  0  0
   -1.9825    0.1679   -0.7371 C   0  0  0  0  0  0  0  0  0  0  0  0
   -0.4571   -0.0160   -0.7360 C   0  0  0  0  0  0  0  0  0  0  0  0
    0.0417   -0.7929    0.4950 C   0  0  0  0  0  0  0  0  0  0  0  0
    1.5165   -1.2192    0.3711 C   0  0  0  0  0  0  0  0  0  0  0  0
    2.5113   -0.0487    0.3780 C   0  0  0  0  0  0  0  0  0  0  0  0
    2.4828    0.6811    1.6522 C   0  0  0  0  0  0  0  0  0  0  0  0
    2.4598    1.2565    2.6560 N   0  0  0  0  0  0  0  0  0  0  0  0
   -2.2951    0.6796    1.3624 H   0  0  0  0  0  0  0  0  0  0  0  0
   -3.5515    1.3016    0.2372 H   0  0  0  0  0  0  0  0  0  0  0  0
   -1.9322    2.0935    0.2868 H   0  0  0  0  0  0  0  0  0  0  0  0
   -2.4873   -0.8160   -0.6229 H   0  0  0  0  0  0  0  0  0  0  0  0
   -2.2848    0.5874   -1.7212 H   0  0  0  0  0  0  0  0  0  0  0  0
    0.0303    0.9811   -0.7841 H   0  0  0  0  0  0  0  0  0  0  0  0
   -0.1791   -0.5754   -1.6559 H   0  0  0  0  0  0  0  0  0  0  0  0
   -0.5682   -1.7153    0.6116 H   0  0  0  0  0  0  0  0  0  0  0  0
   -0.0958   -0.1840    1.4134 H   0  0  0  0  0  0  0  0  0  0  0  0
    1.7610   -1.9039    1.2132 H   0  0  0  0  0  0  0  0  0  0  0  0
    1.6523   -1.8004   -0.5669 H   0  0  0  0  0  0  0  0  0  0  0  0
    2.3043    0.6528   -0.4556 H   0  0  0  0  0  0  0  0  0  0  0  0
    3.5364   -0.4497    0.2312 H   0  0  0  0  0  0  0  0  0  0  0  0
  1  2  1  0
  2  3  1  0
  3  4  1  0
  4  5  1  0
  5  6  1  0
  6  7  1  0
  7  8  3  0
  1  9  1  0
  1 10  1  0
  1 11  1  0
  2 12  1  0
  2 13  1  0
  3 14  1  0
  3 15  1  0
  4 16  1  0
  4 17  1  0
  5 18  1  0
  5 19  1  0
  6 20  1  0
  6 21  1  0
M  END
