
     RDKit          3D

 14 14  0  0  0  0  0  0  0  0999 V2000
   -2.3857   -0.0302    0.0491 N   0  0  0  0  0  0  0  0  0  0  0  0
   -0.9524   -0.0402    0.0130 C   0  0  0  0  0  0  0  0  0  0  0  0
   -0.2009    1.1273    0.2711 C   0  0  0  0  0  0  0  0  0  0  0  0
   -1.0104    2.6496    0.6500 Cl  0  0  0  0  0  0  0  0  0  0  0  0
    1.2075    1.0783    0.2263 C   0  0  0  0  0  0  0  0  0  0  0  0
    1.8566   -0.1320   -0.0750 C   0  0  0  0  0  0  0  0  0  0  0  0
    3.6115   -0.2381   -0.1415 Cl  0  0  0  0  0  0  0  0  0  0  0  0
    1.1059   -1.2818   -0.3290 C   0  0  0  0  0  0  0  0  0  0  0  0
   -0.2870   -1.2370   -0.2855 C   0  0  0  0  0  0  0  0  0  0  0  0
    2.1596    2.5291    0.5467 Cl  0  0  0  0  0  0  0  0  0  0  0  0
   -2.9302    0.8326    0.2659 H   0  0  0  0  0  0  0  0  0  0  0  0
   -2.9263   -0.9028   -0.1443 H   0  0  0  0  0  0  0  0  0  0  0  0
    1.6029   -2.2153   -0.5613 H   0  0  0  0  0  0  0  0  0  0  0  0
   -0.8510   -2.1396   -0.4855 H   0  0  0  0  0  0  0  0  0  0  0  0
  1  2  1  0
  2  3  2  0
  3  4  1  0
  3  5  1  0
  5  6  2  0
  6  7  1  0
  6  8  1  0
  8  9  2  0
  5 10  1  0
  9  2  1  0
  1 11  1  0
  1 12  1  0
  8 13  1  0
  9 14  1  0
M  END
