
     RDKit          3D

 21 21  0  0  0  0  0  0  0  0999 V2000
   -4.3119    0.9099   -1.6471 Br  0  0  0  0  0  0  0  0  0  0  0  0
   -3.2866    0.2387   -0.1465 C   0  0  0  0  0  0  0  0  0  0  0  0
   -1.7944    0.2833   -0.4686 C   0  0  0  0  0  0  0  0  0  0  0  0
   -0.9610   -0.2431    0.7042 C   0  0  0  0  0  0  0  0  0  0  0  0
    0.5067   -0.1938    0.3739 C   0  0  0  0  0  0  0  0  0  0  0  0
    1.2570    0.9618    0.6498 C   0  0  0  0  0  0  0  0  0  0  0  0
    2.6131    1.0179    0.3127 C   0  0  0  0  0  0  0  0  0  0  0  0
    3.2261   -0.0731   -0.3096 C   0  0  0  0  0  0  0  0  0  0  0  0
    2.4831   -1.2207   -0.5998 C   0  0  0  0  0  0  0  0  0  0  0  0
    1.1268   -1.2811   -0.2644 C   0  0  0  0  0  0  0  0  0  0  0  0
   -3.6034   -0.8058    0.0600 H   0  0  0  0  0  0  0  0  0  0  0  0
   -3.5062    0.8680    0.7422 H   0  0  0  0  0  0  0  0  0  0  0  0
   -1.5986   -0.3368   -1.3709 H   0  0  0  0  0  0  0  0  0  0  0  0
   -1.5016    1.3332   -0.6902 H   0  0  0  0  0  0  0  0  0  0  0  0
   -1.2588   -1.2895    0.9365 H   0  0  0  0  0  0  0  0  0  0  0  0
   -1.1625    0.3676    1.6119 H   0  0  0  0  0  0  0  0  0  0  0  0
    0.7918    1.8174    1.1234 H   0  0  0  0  0  0  0  0  0  0  0  0
    3.1879    1.9087    0.5309 H   0  0  0  0  0  0  0  0  0  0  0  0
    4.2754   -0.0275   -0.5710 H   0  0  0  0  0  0  0  0  0  0  0  0
    2.9573   -2.0625   -1.0877 H   0  0  0  0  0  0  0  0  0  0  0  0
    0.5600   -2.1726   -0.5030 H   0  0  0  0  0  0  0  0  0  0  0  0
  1  2  1  0
  2  3  1  0
  3  4  1  0
  4  5  1  0
  5  6  2  0
  6  7  1  0
  7  8  2  0
  8  9  1  0
  9 10  2  0
 10  5  1  0
  2 11  1  0
  2 12  1  0
  3 13  1  0
  3 14  1  0
  4 15  1  0
  4 16  1  0
  6 17  1  0
  7 18  1  0
  8 19  1  0
  9 20  1  0
 10 21  1  0
M  END
