
     RDKit          3D

 13 13  0  0  0  0  0  0  0  0999 V2000
   -2.5015   -0.3587   -0.0038 O   0  0  0  0  0  0  0  0  0  0  0  0
   -1.1223   -0.1399   -0.0001 C   0  0  0  0  0  0  0  0  0  0  0  0
   -0.2079   -1.2098   -0.0889 C   0  0  0  0  0  0  0  0  0  0  0  0
   -0.7503   -2.8784   -0.2091 Cl  0  0  0  0  0  0  0  0  0  0  0  0
    1.1683   -0.9528   -0.0823 C   0  0  0  0  0  0  0  0  0  0  0  0
    1.6405    0.3594    0.0118 C   0  0  0  0  0  0  0  0  0  0  0  0
    3.3665    0.6726    0.0193 Cl  0  0  0  0  0  0  0  0  0  0  0  0
    0.7369    1.4216    0.0999 C   0  0  0  0  0  0  0  0  0  0  0  0
   -0.6402    1.1755    0.0941 C   0  0  0  0  0  0  0  0  0  0  0  0
   -1.7554    2.5288    0.2060 Cl  0  0  0  0  0  0  0  0  0  0  0  0
   -2.9100   -1.2822   -0.0693 H   0  0  0  0  0  0  0  0  0  0  0  0
    1.8714   -1.7736   -0.1504 H   0  0  0  0  0  0  0  0  0  0  0  0
    1.1042    2.4377    0.1727 H   0  0  0  0  0  0  0  0  0  0  0  0
  1  2  1  0
  2  3  2  0
  3  4  1  0
  3  5  1  0
  5  6  2  0
  6  7  1  0
  6  8  1  0
  8  9  2  0
  9 10  1  0
  9  2  1  0
  1 11  1  0
  5 12  1  0
  8 13  1  0
M  END
