
     RDKit          3D

 25 26  0  0  0  0  0  0  0  0999 V2000
   -4.3335    0.6169    0.4014 C   0  0  0  0  0  0  0  0  0  0  0  0
   -2.8490    0.4285    0.2979 C   0  0  0  0  0  0  0  0  0  0  0  0
   -2.0998    1.1994   -0.6022 C   0  0  0  0  0  0  0  0  0  0  0  0
   -0.7218    0.9999   -0.7260 C   0  0  0  0  0  0  0  0  0  0  0  0
   -0.0709    0.0150    0.0391 C   0  0  0  0  0  0  0  0  0  0  0  0
   -0.8309   -0.7680    0.9269 C   0  0  0  0  0  0  0  0  0  0  0  0
   -2.2087   -0.5664    1.0501 C   0  0  0  0  0  0  0  0  0  0  0  0
    1.3933   -0.1980   -0.0928 C   0  0  0  0  0  0  0  0  0  0  0  0
    1.9303   -1.4996   -0.0977 C   0  0  0  0  0  0  0  0  0  0  0  0
    3.3090   -1.6967   -0.2225 C   0  0  0  0  0  0  0  0  0  0  0  0
    4.1658   -0.6004   -0.3426 C   0  0  0  0  0  0  0  0  0  0  0  0
    3.6458    0.6957   -0.3387 C   0  0  0  0  0  0  0  0  0  0  0  0
    2.2678    0.8987   -0.2152 C   0  0  0  0  0  0  0  0  0  0  0  0
   -4.6906    0.3626    1.4221 H   0  0  0  0  0  0  0  0  0  0  0  0
   -4.8411   -0.0412   -0.3343 H   0  0  0  0  0  0  0  0  0  0  0  0
   -4.6099    1.6727    0.1945 H   0  0  0  0  0  0  0  0  0  0  0  0
   -2.5827    1.9540   -1.2108 H   0  0  0  0  0  0  0  0  0  0  0  0
   -0.1688    1.6019   -1.4360 H   0  0  0  0  0  0  0  0  0  0  0  0
   -0.3579   -1.5270    1.5372 H   0  0  0  0  0  0  0  0  0  0  0  0
   -2.7753   -1.1842    1.7360 H   0  0  0  0  0  0  0  0  0  0  0  0
    1.2834   -2.3647   -0.0234 H   0  0  0  0  0  0  0  0  0  0  0  0
    3.7128   -2.7009   -0.2296 H   0  0  0  0  0  0  0  0  0  0  0  0
    5.2327   -0.7553   -0.4387 H   0  0  0  0  0  0  0  0  0  0  0  0
    4.3112    1.5446   -0.4282 H   0  0  0  0  0  0  0  0  0  0  0  0
    1.8885    1.9127   -0.1976 H   0  0  0  0  0  0  0  0  0  0  0  0
  1  2  1  0
  2  3  2  0
  3  4  1  0
  4  5  2  0
  5  6  1  0
  6  7  2  0
  5  8  1  0
  8  9  2  0
  9 10  1  0
 10 11  2  0
 11 12  1  0
 12 13  2  0
  7  2  1  0
 13  8  1  0
  1 14  1  0
  1 15  1  0
  1 16  1  0
  3 17  1  0
  4 18  1  0
  6 19  1  0
  7 20  1  0
  9 21  1  0
 10 22  1  0
 11 23  1  0
 12 24  1  0
 13 25  1  0
M  END
