
     RDKit          3D

 18 18  0  0  0  0  0  0  0  0999 V2000
    2.6473   -1.5920   -0.2698 N   0  0  0  0  0  0  0  0  0  0  0  0
    2.3036   -0.2225   -0.0417 C   0  0  0  0  0  0  0  0  0  0  0  0
    3.2257    0.6050    0.1913 O   0  0  0  0  0  0  0  0  0  0  0  0
    0.8956    0.2426   -0.0910 C   0  0  0  0  0  0  0  0  0  0  0  0
    0.6145    1.5952   -0.3490 C   0  0  0  0  0  0  0  0  0  0  0  0
   -0.7049    2.0479   -0.3956 C   0  0  0  0  0  0  0  0  0  0  0  0
   -1.7606    1.1614   -0.1785 C   0  0  0  0  0  0  0  0  0  0  0  0
   -1.5077   -0.1931    0.0945 C   0  0  0  0  0  0  0  0  0  0  0  0
   -0.1739   -0.6437    0.1396 C   0  0  0  0  0  0  0  0  0  0  0  0
   -2.5993   -1.1020    0.3304 N   0  0  0  0  0  4  0  0  0  0  0  0
   -3.9007   -0.6559    0.2947 O   0  0  0  0  0  1  0  0  0  0  0  0
   -2.3844   -2.3088    0.5680 O   0  0  0  0  0  0  0  0  0  0  0  0
    1.9498   -2.2824   -0.6235 H   0  0  0  0  0  0  0  0  0  0  0  0
    3.6391   -1.9028   -0.1700 H   0  0  0  0  0  0  0  0  0  0  0  0
    1.4157    2.3021   -0.5260 H   0  0  0  0  0  0  0  0  0  0  0  0
   -0.9101    3.0906   -0.6017 H   0  0  0  0  0  0  0  0  0  0  0  0
   -2.7746    1.5374   -0.2199 H   0  0  0  0  0  0  0  0  0  0  0  0
    0.0247   -1.6790    0.3798 H   0  0  0  0  0  0  0  0  0  0  0  0
  1  2  1  0
  2  3  2  0
  2  4  1  0
  4  5  2  0
  5  6  1  0
  6  7  2  0
  7  8  1  0
  8  9  2  0
  8 10  1  0
 10 11  1  0
 10 12  2  0
  9  4  1  0
  1 13  1  0
  1 14  1  0
  5 15  1  0
  6 16  1  0
  7 17  1  0
  9 18  1  0
M  CHG  2  10   1  11  -1
M  END
