
     RDKit          3D

 17 17  0  0  0  0  0  0  0  0999 V2000
    3.8883   -0.1098   -0.0368 C   0  0  0  0  0  0  0  0  0  0  0  0
    2.4260   -0.0685   -0.0428 C   0  0  0  0  0  0  0  0  0  0  0  0
    1.2209   -0.0345   -0.0476 C   0  0  0  0  0  0  0  0  0  0  0  0
   -0.2178    0.0061   -0.0535 C   0  0  0  0  0  0  0  0  0  0  0  0
   -0.8895    1.1734    0.3357 C   0  0  0  0  0  0  0  0  0  0  0  0
   -2.2878    1.2112    0.3295 C   0  0  0  0  0  0  0  0  0  0  0  0
   -3.0174    0.0852   -0.0648 C   0  0  0  0  0  0  0  0  0  0  0  0
   -2.3494   -1.0803   -0.4535 C   0  0  0  0  0  0  0  0  0  0  0  0
   -0.9511   -1.1214   -0.4484 C   0  0  0  0  0  0  0  0  0  0  0  0
    4.2812    0.7764    0.5027 H   0  0  0  0  0  0  0  0  0  0  0  0
    4.2302   -1.0343    0.4725 H   0  0  0  0  0  0  0  0  0  0  0  0
    4.2628   -0.1030   -1.0811 H   0  0  0  0  0  0  0  0  0  0  0  0
   -0.3334    2.0511    0.6429 H   0  0  0  0  0  0  0  0  0  0  0  0
   -2.8057    2.1128    0.6301 H   0  0  0  0  0  0  0  0  0  0  0  0
   -4.0993    0.1158   -0.0692 H   0  0  0  0  0  0  0  0  0  0  0  0
   -2.9149   -1.9513   -0.7585 H   0  0  0  0  0  0  0  0  0  0  0  0
   -0.4431   -2.0291   -0.7512 H   0  0  0  0  0  0  0  0  0  0  0  0
  1  2  1  0
  2  3  3  0
  3  4  1  0
  4  5  2  0
  5  6  1  0
  6  7  2  0
  7  8  1  0
  8  9  2  0
  9  4  1  0
  1 10  1  0
  1 11  1  0
  1 12  1  0
  5 13  1  0
  6 14  1  0
  7 15  1  0
  8 16  1  0
  9 17  1  0
M  END
