
     RDKit          3D

 25 25  0  0  0  0  0  0  0  0999 V2000
   -1.8880    0.5594    0.9844 C   0  0  0  0  0  0  0  0  0  0  0  0
   -1.1423   -0.3216   -0.0437 C   0  0  0  0  0  0  0  0  0  0  0  0
   -1.5410   -1.7913    0.2482 C   0  0  0  0  0  0  0  0  0  0  0  0
   -1.6377    0.0039   -1.4712 C   0  0  0  0  0  0  0  0  0  0  0  0
    0.3874   -0.0781    0.0571 C   0  0  0  0  0  0  0  0  0  0  0  0
    0.9484    1.2110   -0.1773 C   0  0  0  0  0  0  0  0  0  0  0  0
    0.1417    2.2993   -0.5057 O   0  0  0  0  0  0  0  0  0  0  0  0
    2.3338    1.4126   -0.0817 C   0  0  0  0  0  0  0  0  0  0  0  0
    3.1838    0.3602    0.2430 C   0  0  0  0  0  0  0  0  0  0  0  0
    2.6603   -0.9062    0.4761 C   0  0  0  0  0  0  0  0  0  0  0  0
    1.2849   -1.1278    0.3861 C   0  0  0  0  0  0  0  0  0  0  0  0
   -1.7975    1.6397    0.7589 H   0  0  0  0  0  0  0  0  0  0  0  0
   -1.4884    0.3810    2.0062 H   0  0  0  0  0  0  0  0  0  0  0  0
   -2.9747    0.3245    0.9903 H   0  0  0  0  0  0  0  0  0  0  0  0
   -2.6416   -1.9280    0.1669 H   0  0  0  0  0  0  0  0  0  0  0  0
   -1.0696   -2.4839   -0.4825 H   0  0  0  0  0  0  0  0  0  0  0  0
   -1.2492   -2.0852    1.2798 H   0  0  0  0  0  0  0  0  0  0  0  0
   -1.0575   -0.5754   -2.2217 H   0  0  0  0  0  0  0  0  0  0  0  0
   -2.7122   -0.2580   -1.5850 H   0  0  0  0  0  0  0  0  0  0  0  0
   -1.5454    1.0800   -1.7149 H   0  0  0  0  0  0  0  0  0  0  0  0
    0.5274    3.2210   -0.6749 H   0  0  0  0  0  0  0  0  0  0  0  0
    2.7543    2.3940   -0.2609 H   0  0  0  0  0  0  0  0  0  0  0  0
    4.2509    0.5271    0.3140 H   0  0  0  0  0  0  0  0  0  0  0  0
    3.3235   -1.7237    0.7287 H   0  0  0  0  0  0  0  0  0  0  0  0
    0.9486   -2.1344    0.5795 H   0  0  0  0  0  0  0  0  0  0  0  0
  1  2  1  0
  2  3  1  0
  2  4  1  0
  2  5  1  0
  5  6  2  0
  6  7  1  0
  6  8  1  0
  8  9  2  0
  9 10  1  0
 10 11  2  0
 11  5  1  0
  1 12  1  0
  1 13  1  0
  1 14  1  0
  3 15  1  0
  3 16  1  0
  3 17  1  0
  4 18  1  0
  4 19  1  0
  4 20  1  0
  7 21  1  0
  8 22  1  0
  9 23  1  0
 10 24  1  0
 11 25  1  0
M  END
