
     RDKit          3D

 30 30  0  0  0  0  0  0  0  0999 V2000
    4.1949    0.9156   -0.5388 C   0  0  0  0  0  0  0  0  0  0  0  0
    3.8111   -0.5637   -0.5234 C   0  0  0  0  0  0  0  0  0  0  0  0
    2.2909   -0.7824   -0.5627 C   0  0  0  0  0  0  0  0  0  0  0  0
    1.5985   -0.3422    0.7392 C   0  0  0  0  0  0  0  0  0  0  0  0
    0.1312   -0.7940    0.8104 C   0  0  0  0  0  0  0  0  0  0  0  0
   -0.7659   -0.0463   -0.1887 C   0  0  0  0  0  0  0  0  0  0  0  0
   -2.2422   -0.4325   -0.0149 C   0  0  0  0  0  0  0  0  0  0  0  0
   -3.1559    0.2394   -1.0697 C   0  0  0  0  0  0  0  0  0  0  0  0
   -4.3318    0.8507   -0.2978 C   0  0  0  0  0  0  0  0  0  0  0  0
   -3.9054    0.7051    1.1065 C   0  0  0  0  0  0  0  0  0  0  0  0
   -4.5446    1.1634    2.0890 O   0  0  0  0  0  0  0  0  0  0  0  0
   -2.7286    0.0058    1.2424 O   0  0  0  0  0  0  0  0  0  0  0  0
    3.7295    1.4292   -1.4068 H   0  0  0  0  0  0  0  0  0  0  0  0
    5.2981    1.0096   -0.6228 H   0  0  0  0  0  0  0  0  0  0  0  0
    3.8764    1.4136    0.4004 H   0  0  0  0  0  0  0  0  0  0  0  0
    4.2589   -1.0493   -1.4175 H   0  0  0  0  0  0  0  0  0  0  0  0
    4.2455   -1.0520    0.3759 H   0  0  0  0  0  0  0  0  0  0  0  0
    1.8649   -0.2330   -1.4293 H   0  0  0  0  0  0  0  0  0  0  0  0
    2.1055   -1.8669   -0.7238 H   0  0  0  0  0  0  0  0  0  0  0  0
    1.6480    0.7627    0.8451 H   0  0  0  0  0  0  0  0  0  0  0  0
    2.1358   -0.7897    1.6038 H   0  0  0  0  0  0  0  0  0  0  0  0
    0.0652   -1.8897    0.6320 H   0  0  0  0  0  0  0  0  0  0  0  0
   -0.2349   -0.5993    1.8420 H   0  0  0  0  0  0  0  0  0  0  0  0
   -0.4565   -0.3002   -1.2249 H   0  0  0  0  0  0  0  0  0  0  0  0
   -0.6529    1.0510   -0.0447 H   0  0  0  0  0  0  0  0  0  0  0  0
   -2.3575   -1.5373   -0.0814 H   0  0  0  0  0  0  0  0  0  0  0  0
   -3.5180   -0.5086   -1.8082 H   0  0  0  0  0  0  0  0  0  0  0  0
   -2.6194    1.0450   -1.6189 H   0  0  0  0  0  0  0  0  0  0  0  0
   -5.2657    0.2746   -0.4721 H   0  0  0  0  0  0  0  0  0  0  0  0
   -4.4753    1.9217   -0.5569 H   0  0  0  0  0  0  0  0  0  0  0  0
  1  2  1  0
  2  3  1  0
  3  4  1  0
  4  5  1  0
  5  6  1  0
  6  7  1  0
  7  8  1  0
  8  9  1  0
  9 10  1  0
 10 11  2  0
 10 12  1  0
 12  7  1  0
  1 13  1  0
  1 14  1  0
  1 15  1  0
  2 16  1  0
  2 17  1  0
  3 18  1  0
  3 19  1  0
  4 20  1  0
  4 21  1  0
  5 22  1  0
  5 23  1  0
  6 24  1  0
  6 25  1  0
  7 26  1  0
  8 27  1  0
  8 28  1  0
  9 29  1  0
  9 30  1  0
M  END
