
     RDKit          3D

 16 16  0  0  0  0  0  0  0  0999 V2000
    3.2421    1.8409   -0.2171 I   0  0  0  0  0  0  0  0  0  0  0  0
    1.3210    0.9486   -0.0942 C   0  0  0  0  0  0  0  0  0  0  0  0
    0.2259    1.7508   -0.4306 C   0  0  0  0  0  0  0  0  0  0  0  0
   -1.0649    1.2211   -0.4490 C   0  0  0  0  0  0  0  0  0  0  0  0
   -1.2841   -0.1295   -0.1385 C   0  0  0  0  0  0  0  0  0  0  0  0
   -0.1836   -0.9372    0.2001 C   0  0  0  0  0  0  0  0  0  0  0  0
    1.1199   -0.4092    0.2373 C   0  0  0  0  0  0  0  0  0  0  0  0
    2.2161   -1.2601    0.6111 N   0  0  0  0  0  4  0  0  0  0  0  0
    3.1993   -0.7985    1.4546 O   0  0  0  0  0  1  0  0  0  0  0  0
    2.1888   -2.4761    0.3294 O   0  0  0  0  0  0  0  0  0  0  0  0
   -2.6164   -0.6748   -0.1649 N   0  0  0  0  0  4  0  0  0  0  0  0
   -3.6909    0.1201   -0.4931 O   0  0  0  0  0  1  0  0  0  0  0  0
   -2.8191   -1.8762    0.1081 O   0  0  0  0  0  0  0  0  0  0  0  0
    0.3761    2.7904   -0.6920 H   0  0  0  0  0  0  0  0  0  0  0  0
   -1.8906    1.8681   -0.7150 H   0  0  0  0  0  0  0  0  0  0  0  0
   -0.3398   -1.9782    0.4537 H   0  0  0  0  0  0  0  0  0  0  0  0
  1  2  1  0
  2  3  2  0
  3  4  1  0
  4  5  2  0
  5  6  1  0
  6  7  2  0
  7  8  1  0
  8  9  1  0
  8 10  2  0
  5 11  1  0
 11 12  1  0
 11 13  2  0
  7  2  1  0
  3 14  1  0
  4 15  1  0
  6 16  1  0
M  CHG  4   8   1   9  -1  11   1  12  -1
M  END
