
     RDKit          3D

 15 15  0  0  0  0  0  0  0  0999 V2000
   -2.8156   -1.1883   -0.3184 O   0  0  0  0  0  0  0  0  0  0  0  0
   -2.1599   -0.0602    0.1711 C   0  0  0  0  0  0  0  0  0  0  0  0
   -2.8428    0.8529    0.7050 O   0  0  0  0  0  0  0  0  0  0  0  0
   -0.6848    0.0572    0.0946 C   0  0  0  0  0  0  0  0  0  0  0  0
   -0.0413    1.2941   -0.1526 C   0  0  0  0  0  0  0  0  0  0  0  0
   -1.0070    2.9147   -0.5100 Br  0  0  0  0  0  0  0  0  0  0  0  0
    1.3576    1.3554   -0.1958 C   0  0  0  0  0  0  0  0  0  0  0  0
    2.1234    0.2057    0.0031 C   0  0  0  0  0  0  0  0  0  0  0  0
    1.4968   -1.0167    0.2437 C   0  0  0  0  0  0  0  0  0  0  0  0
    0.1027   -1.0926    0.2890 C   0  0  0  0  0  0  0  0  0  0  0  0
   -2.3209   -1.9252   -0.8059 H   0  0  0  0  0  0  0  0  0  0  0  0
    1.8542    2.2971   -0.3922 H   0  0  0  0  0  0  0  0  0  0  0  0
    3.2037    0.2621   -0.0321 H   0  0  0  0  0  0  0  0  0  0  0  0
    2.0921   -1.9070    0.4007 H   0  0  0  0  0  0  0  0  0  0  0  0
   -0.3583   -2.0494    0.4998 H   0  0  0  0  0  0  0  0  0  0  0  0
  1  2  1  0
  2  3  2  0
  2  4  1  0
  4  5  2  0
  5  6  1  0
  5  7  1  0
  7  8  2  0
  8  9  1  0
  9 10  2  0
 10  4  1  0
  1 11  1  0
  7 12  1  0
  8 13  1  0
  9 14  1  0
 10 15  1  0
M  END
