
     RDKit          3D

 16 15  0  0  0  0  0  0  0  0999 V2000
   -1.9532   -0.5978   -0.4972 C   0  0  0  0  0  0  0  0  0  0  0  0
   -0.7731    0.1500    0.0632 C   0  0  0  0  0  0  0  0  0  0  0  0
   -0.9327    1.4151    0.4793 C   0  0  0  0  0  0  0  0  0  0  0  0
    0.5766   -0.5217    0.1754 C   0  0  0  0  0  0  0  0  0  0  0  0
    1.5466    0.0112   -0.8826 C   0  0  0  0  0  0  0  0  0  0  0  0
    2.7721   -0.6637   -0.8002 O   0  0  0  0  0  0  0  0  0  0  0  0
   -1.6694   -1.6222   -0.8167 H   0  0  0  0  0  0  0  0  0  0  0  0
   -2.7488   -0.6767    0.2736 H   0  0  0  0  0  0  0  0  0  0  0  0
   -2.3545   -0.0575   -1.3807 H   0  0  0  0  0  0  0  0  0  0  0  0
   -0.1003    1.9737    0.8969 H   0  0  0  0  0  0  0  0  0  0  0  0
   -1.8990    1.9060    0.4090 H   0  0  0  0  0  0  0  0  0  0  0  0
    0.9946   -0.3501    1.1916 H   0  0  0  0  0  0  0  0  0  0  0  0
    0.4732   -1.6204    0.0441 H   0  0  0  0  0  0  0  0  0  0  0  0
    1.7023    1.1069   -0.7549 H   0  0  0  0  0  0  0  0  0  0  0  0
    1.1185   -0.1590   -1.8938 H   0  0  0  0  0  0  0  0  0  0  0  0
    3.2474   -0.2938   -0.0108 H   0  0  0  0  0  0  0  0  0  0  0  0
  1  2  1  0
  2  3  2  3
  2  4  1  0
  4  5  1  0
  5  6  1  0
  1  7  1  0
  1  8  1  0
  1  9  1  0
  3 10  1  0
  3 11  1  0
  4 12  1  0
  4 13  1  0
  5 14  1  0
  5 15  1  0
  6 16  1  0
M  END
