
     RDKit          3D

 27 29  0  0  0  0  0  0  0  0999 V2000
    1.6855   -1.7623   -1.4392 O   0  0  0  0  0  0  0  0  0  0  0  0
    0.8492   -0.8862   -0.7245 C   0  0  0  0  0  0  0  0  0  0  0  0
   -0.4773   -0.6525   -1.4962 C   0  0  0  0  0  0  0  0  0  0  0  0
   -1.3732    0.3306   -0.7101 C   0  0  0  0  0  0  0  0  0  0  0  0
   -1.6840   -0.2587    0.6843 C   0  0  0  0  0  0  0  0  0  0  0  0
   -0.3665   -0.4796    1.4611 C   0  0  0  0  0  0  0  0  0  0  0  0
    0.3684    0.8695    1.6211 C   0  0  0  0  0  0  0  0  0  0  0  0
    0.6821    1.4563    0.2272 C   0  0  0  0  0  0  0  0  0  0  0  0
   -0.6365    1.6781   -0.5461 C   0  0  0  0  0  0  0  0  0  0  0  0
    1.5772    0.4700   -0.5559 C   0  0  0  0  0  0  0  0  0  0  0  0
    0.5321   -1.4648    0.6807 C   0  0  0  0  0  0  0  0  0  0  0  0
    1.2044   -2.6254   -1.5381 H   0  0  0  0  0  0  0  0  0  0  0  0
   -0.2632   -0.2423   -2.5079 H   0  0  0  0  0  0  0  0  0  0  0  0
   -1.0158   -1.6158   -1.6365 H   0  0  0  0  0  0  0  0  0  0  0  0
   -2.3230    0.4920   -1.2648 H   0  0  0  0  0  0  0  0  0  0  0  0
   -2.3460    0.4335    1.2496 H   0  0  0  0  0  0  0  0  0  0  0  0
   -2.2279   -1.2229    0.5767 H   0  0  0  0  0  0  0  0  0  0  0  0
   -0.5935   -0.8998    2.4650 H   0  0  0  0  0  0  0  0  0  0  0  0
    1.3111    0.7234    2.1929 H   0  0  0  0  0  0  0  0  0  0  0  0
   -0.2630    1.5797    2.1990 H   0  0  0  0  0  0  0  0  0  0  0  0
    1.2119    2.4267    0.3436 H   0  0  0  0  0  0  0  0  0  0  0  0
   -0.4220    2.1181   -1.5448 H   0  0  0  0  0  0  0  0  0  0  0  0
   -1.2816    2.3995    0.0021 H   0  0  0  0  0  0  0  0  0  0  0  0
    2.5376    0.3226   -0.0139 H   0  0  0  0  0  0  0  0  0  0  0  0
    1.8238    0.8971   -1.5533 H   0  0  0  0  0  0  0  0  0  0  0  0
    1.4758   -1.6418    1.2426 H   0  0  0  0  0  0  0  0  0  0  0  0
    0.0145   -2.4449    0.5854 H   0  0  0  0  0  0  0  0  0  0  0  0
  1  2  1  0
  2  3  1  0
  3  4  1  0
  4  5  1  0
  5  6  1  0
  6  7  1  0
  7  8  1  0
  8  9  1  0
  8 10  1  0
  6 11  1  0
 10  2  1  0
 11  2  1  0
  9  4  1  0
  1 12  1  0
  3 13  1  0
  3 14  1  0
  4 15  1  0
  5 16  1  0
  5 17  1  0
  6 18  1  0
  7 19  1  0
  7 20  1  0
  8 21  1  0
  9 22  1  0
  9 23  1  0
 10 24  1  0
 10 25  1  0
 11 26  1  0
 11 27  1  0
M  END
