
     RDKit          3D

 14 14  0  0  0  0  0  0  0  0999 V2000
    2.7910    0.1967    0.0324 O   0  0  0  0  0  0  0  0  0  0  0  0
    1.4010    0.0901    0.0158 C   0  0  0  0  0  0  0  0  0  0  0  0
    0.6214    1.2522    0.0665 C   0  0  0  0  0  0  0  0  0  0  0  0
    1.2204    2.4678    0.1311 F   0  0  0  0  0  0  0  0  0  0  0  0
   -0.7753    1.1651    0.0509 C   0  0  0  0  0  0  0  0  0  0  0  0
   -1.4010   -0.0901   -0.0158 C   0  0  0  0  0  0  0  0  0  0  0  0
   -2.7910   -0.1967   -0.0324 O   0  0  0  0  0  0  0  0  0  0  0  0
   -0.6214   -1.2522   -0.0665 C   0  0  0  0  0  0  0  0  0  0  0  0
    0.7753   -1.1651   -0.0509 C   0  0  0  0  0  0  0  0  0  0  0  0
    1.5177   -2.2997   -0.1005 F   0  0  0  0  0  0  0  0  0  0  0  0
   -1.2204   -2.4678   -0.1311 F   0  0  0  0  0  0  0  0  0  0  0  0
   -1.5177    2.2997    0.1005 F   0  0  0  0  0  0  0  0  0  0  0  0
    3.3906   -0.6191   -0.0028 H   0  0  0  0  0  0  0  0  0  0  0  0
   -3.3906    0.6191    0.0028 H   0  0  0  0  0  0  0  0  0  0  0  0
  1  2  1  0
  2  3  2  0
  3  4  1  0
  3  5  1  0
  5  6  2  0
  6  7  1  0
  6  8  1  0
  8  9  2  0
  9 10  1  0
  8 11  1  0
  5 12  1  0
  9  2  1  0
  1 13  1  0
  7 14  1  0
M  END
