
     RDKit          3D

 16 16  0  0  0  0  0  0  0  0999 V2000
   -2.1415    0.6893    0.2035 N   0  0  0  0  0  0  0  0  0  0  0  0
   -0.7256    0.4694    0.1085 C   0  0  0  0  0  0  0  0  0  0  0  0
   -0.2152   -0.8036   -0.2546 C   0  0  0  0  0  0  0  0  0  0  0  0
    1.1719   -1.0219   -0.2371 C   0  0  0  0  0  0  0  0  0  0  0  0
    2.0505    0.0087    0.0971 C   0  0  0  0  0  0  0  0  0  0  0  0
    3.9349   -0.3043    0.0961 Br  0  0  0  0  0  0  0  0  0  0  0  0
    1.5541    1.2702    0.4216 C   0  0  0  0  0  0  0  0  0  0  0  0
    0.1765    1.5080    0.4321 C   0  0  0  0  0  0  0  0  0  0  0  0
   -0.4183    3.2605    0.9377 Br  0  0  0  0  0  0  0  0  0  0  0  0
   -1.0811   -1.8719   -0.6720 N   0  0  0  0  0  4  0  0  0  0  0  0
   -0.7359   -3.1776   -0.4091 O   0  0  0  0  0  1  0  0  0  0  0  0
   -2.0280   -1.6459   -1.4534 O   0  0  0  0  0  0  0  0  0  0  0  0
   -2.8125   -0.1059    0.2770 H   0  0  0  0  0  0  0  0  0  0  0  0
   -2.5445    1.6476    0.2857 H   0  0  0  0  0  0  0  0  0  0  0  0
    1.5734   -1.9896   -0.5103 H   0  0  0  0  0  0  0  0  0  0  0  0
    2.2413    2.0668    0.6772 H   0  0  0  0  0  0  0  0  0  0  0  0
  1  2  1  0
  2  3  2  0
  3  4  1  0
  4  5  2  0
  5  6  1  0
  5  7  1  0
  7  8  2  0
  8  9  1  0
  3 10  1  0
 10 11  1  0
 10 12  2  0
  8  2  1  0
  1 13  1  0
  1 14  1  0
  4 15  1  0
  7 16  1  0
M  CHG  2  10   1  11  -1
M  END
