
     RDKit          3D

 16 16  0  0  0  0  0  0  0  0999 V2000
   -2.7563    0.4796    0.4088 O   0  0  0  0  0  0  0  0  0  0  0  0
   -2.0128   -0.1587   -0.5926 C   0  0  0  0  0  0  0  0  0  0  0  0
   -0.5441   -0.0664   -0.2833 C   0  0  0  0  0  0  0  0  0  0  0  0
    0.0970   -1.0954    0.4254 C   0  0  0  0  0  0  0  0  0  0  0  0
    1.4554   -0.9924    0.7417 C   0  0  0  0  0  0  0  0  0  0  0  0
    2.1798    0.1426    0.3626 C   0  0  0  0  0  0  0  0  0  0  0  0
    3.8831    0.2710    0.7618 Cl  0  0  0  0  0  0  0  0  0  0  0  0
    1.5429    1.1778   -0.3298 C   0  0  0  0  0  0  0  0  0  0  0  0
    0.1847    1.0774   -0.6473 C   0  0  0  0  0  0  0  0  0  0  0  0
   -2.7628   -0.1324    1.1908 H   0  0  0  0  0  0  0  0  0  0  0  0
   -2.3302   -1.2217   -0.6950 H   0  0  0  0  0  0  0  0  0  0  0  0
   -2.2242    0.3361   -1.5645 H   0  0  0  0  0  0  0  0  0  0  0  0
   -0.4541   -1.9756    0.7328 H   0  0  0  0  0  0  0  0  0  0  0  0
    1.9422   -1.7930    1.2839 H   0  0  0  0  0  0  0  0  0  0  0  0
    2.0977    2.0612   -0.6192 H   0  0  0  0  0  0  0  0  0  0  0  0
   -0.2985    1.8898   -1.1760 H   0  0  0  0  0  0  0  0  0  0  0  0
  1  2  1  0
  2  3  1  0
  3  4  2  0
  4  5  1  0
  5  6  2  0
  6  7  1  0
  6  8  1  0
  8  9  2  0
  9  3  1  0
  1 10  1  0
  2 11  1  0
  2 12  1  0
  4 13  1  0
  5 14  1  0
  8 15  1  0
  9 16  1  0
M  END
