
     RDKit          3D

 14 14  0  0  0  0  0  0  0  0999 V2000
   -3.1465   -0.7257    0.4666 O   0  0  0  0  0  1  0  0  0  0  0  0
   -1.9721   -1.2458   -0.0258 N   0  0  0  0  0  4  0  0  0  0  0  0
   -1.9397   -2.4525   -0.3446 O   0  0  0  0  0  0  0  0  0  0  0  0
   -0.7619   -0.4660   -0.0214 C   0  0  0  0  0  0  0  0  0  0  0  0
    0.4763   -1.1092    0.1672 C   0  0  0  0  0  0  0  0  0  0  0  0
    1.6657   -0.3748    0.1929 C   0  0  0  0  0  0  0  0  0  0  0  0
    1.6341    1.0103    0.0241 C   0  0  0  0  0  0  0  0  0  0  0  0
    0.4166    1.6618   -0.1778 C   0  0  0  0  0  0  0  0  0  0  0  0
   -0.7817    0.9371   -0.2055 C   0  0  0  0  0  0  0  0  0  0  0  0
   -2.2646    1.8223   -0.5450 Cl  0  0  0  0  0  0  0  0  0  0  0  0
    3.1977   -1.1930    0.4406 Cl  0  0  0  0  0  0  0  0  0  0  0  0
    0.5168   -2.1818    0.3101 H   0  0  0  0  0  0  0  0  0  0  0  0
    2.5530    1.5826    0.0420 H   0  0  0  0  0  0  0  0  0  0  0  0
    0.4063    2.7347   -0.3236 H   0  0  0  0  0  0  0  0  0  0  0  0
  1  2  1  0
  2  3  2  0
  2  4  1  0
  4  5  2  0
  5  6  1  0
  6  7  2  0
  7  8  1  0
  8  9  2  0
  9 10  1  0
  6 11  1  0
  9  4  1  0
  5 12  1  0
  7 13  1  0
  8 14  1  0
M  CHG  2   1  -1   2   1
M  END
