
     RDKit          3D

 22 23  0  0  0  0  0  0  0  0999 V2000
    1.4393    1.9063    0.1017 C   0  0  0  0  0  0  0  0  0  0  0  0
    0.8012    0.5898    0.0979 N   0  0  0  0  0  0  0  0  0  0  0  0
    1.4143   -0.6229    0.0651 C   0  0  0  0  0  0  0  0  0  0  0  0
    0.4767   -1.6504   -0.0027 C   0  0  0  0  0  0  0  0  0  0  0  0
   -0.7473   -1.0183   -0.0331 C   0  0  0  0  0  0  0  0  0  0  0  0
   -2.0324   -1.5491   -0.1224 C   0  0  0  0  0  0  0  0  0  0  0  0
   -3.1132   -0.6501   -0.1585 C   0  0  0  0  0  0  0  0  0  0  0  0
   -2.8866    0.7427   -0.1099 C   0  0  0  0  0  0  0  0  0  0  0  0
   -1.5774    1.2501   -0.0217 C   0  0  0  0  0  0  0  0  0  0  0  0
   -0.5210    0.3345    0.0204 C   0  0  0  0  0  0  0  0  0  0  0  0
    2.8973   -0.8287    0.0977 C   0  0  0  0  0  0  0  0  0  0  0  0
    1.4585    2.3127   -0.9310 H   0  0  0  0  0  0  0  0  0  0  0  0
    0.8780    2.6011    0.7608 H   0  0  0  0  0  0  0  0  0  0  0  0
    2.4779    1.8415    0.4867 H   0  0  0  0  0  0  0  0  0  0  0  0
    0.6666   -2.7153   -0.0410 H   0  0  0  0  0  0  0  0  0  0  0  0
   -2.1955   -2.6183   -0.1667 H   0  0  0  0  0  0  0  0  0  0  0  0
   -4.1247   -1.0284   -0.2280 H   0  0  0  0  0  0  0  0  0  0  0  0
   -3.7259    1.4251   -0.1427 H   0  0  0  0  0  0  0  0  0  0  0  0
   -1.4038    2.3173    0.0095 H   0  0  0  0  0  0  0  0  0  0  0  0
    3.1459   -1.9030   -0.0338 H   0  0  0  0  0  0  0  0  0  0  0  0
    3.3732   -0.2511   -0.7219 H   0  0  0  0  0  0  0  0  0  0  0  0
    3.2989   -0.4855    1.0736 H   0  0  0  0  0  0  0  0  0  0  0  0
  1  2  1  0
  2  3  1  0
  3  4  2  0
  4  5  1  0
  5  6  2  0
  6  7  1  0
  7  8  2  0
  8  9  1  0
  9 10  2  0
  3 11  1  0
 10  2  1  0
 10  5  1  0
  1 12  1  0
  1 13  1  0
  1 14  1  0
  4 15  1  0
  6 16  1  0
  7 17  1  0
  8 18  1  0
  9 19  1  0
 11 20  1  0
 11 21  1  0
 11 22  1  0
M  END
