
     RDKit          3D

 14 14  0  0  0  0  0  0  0  0999 V2000
   -3.2558    0.0655   -0.2097 F   0  0  0  0  0  0  0  0  0  0  0  0
   -1.9024    0.0349   -0.1242 C   0  0  0  0  0  0  0  0  0  0  0  0
   -1.2158   -1.1600   -0.3460 C   0  0  0  0  0  0  0  0  0  0  0  0
   -1.9056   -2.2895   -0.6432 F   0  0  0  0  0  0  0  0  0  0  0  0
    0.1803   -1.1974   -0.2593 C   0  0  0  0  0  0  0  0  0  0  0  0
    0.9095   -0.0277    0.0536 C   0  0  0  0  0  0  0  0  0  0  0  0
    0.2001    1.1733    0.2750 C   0  0  0  0  0  0  0  0  0  0  0  0
   -1.1961    1.1985    0.1853 C   0  0  0  0  0  0  0  0  0  0  0  0
   -1.8665    2.3588    0.3960 F   0  0  0  0  0  0  0  0  0  0  0  0
    0.8524    2.3287    0.5592 F   0  0  0  0  0  0  0  0  0  0  0  0
    2.3496   -0.0576    0.1464 N   0  0  0  0  0  4  0  0  0  0  0  0
    3.0398    0.9806    0.7287 O   0  0  0  0  0  1  0  0  0  0  0  0
    2.9987   -1.0272   -0.2972 O   0  0  0  0  0  0  0  0  0  0  0  0
    0.8118   -2.3810   -0.4645 F   0  0  0  0  0  0  0  0  0  0  0  0
  1  2  1  0
  2  3  2  0
  3  4  1  0
  3  5  1  0
  5  6  2  0
  6  7  1  0
  7  8  2  0
  8  9  1  0
  7 10  1  0
  6 11  1  0
 11 12  1  0
 11 13  2  0
  5 14  1  0
  8  2  1  0
M  CHG  2  11   1  12  -1
M  END
