
     RDKit          3D

 19 19  0  0  0  0  0  0  0  0999 V2000
    2.9240   -0.2219    0.0795 C   0  0  0  0  0  0  0  0  0  0  0  0
    1.4249   -0.2815    0.0619 C   0  0  0  0  0  0  0  0  0  0  0  0
    0.6709    0.9001    0.0915 C   0  0  0  0  0  0  0  0  0  0  0  0
   -0.7336    0.8604    0.0511 C   0  0  0  0  0  0  0  0  0  0  0  0
   -1.3871   -0.3906   -0.0705 C   0  0  0  0  0  0  0  0  0  0  0  0
   -2.8095   -0.4850   -0.2222 N   0  0  0  0  0  0  0  0  0  0  0  0
   -0.6236   -1.5671   -0.1045 C   0  0  0  0  0  0  0  0  0  0  0  0
    0.7696   -1.5140   -0.0440 C   0  0  0  0  0  0  0  0  0  0  0  0
   -1.4701    2.0896    0.1574 N   0  0  0  0  0  4  0  0  0  0  0  0
   -0.9413    3.2527   -0.3533 O   0  0  0  0  0  1  0  0  0  0  0  0
   -2.4772    2.1585    0.8916 O   0  0  0  0  0  0  0  0  0  0  0  0
    3.3016   -0.1253   -0.9598 H   0  0  0  0  0  0  0  0  0  0  0  0
    3.3488   -1.1417    0.5352 H   0  0  0  0  0  0  0  0  0  0  0  0
    3.2742    0.6482    0.6748 H   0  0  0  0  0  0  0  0  0  0  0  0
    1.1788    1.8536    0.1723 H   0  0  0  0  0  0  0  0  0  0  0  0
   -3.2806   -1.4173   -0.2206 H   0  0  0  0  0  0  0  0  0  0  0  0
   -3.3973    0.3459   -0.4494 H   0  0  0  0  0  0  0  0  0  0  0  0
   -1.1103   -2.5295   -0.2023 H   0  0  0  0  0  0  0  0  0  0  0  0
    1.3376   -2.4352   -0.0887 H   0  0  0  0  0  0  0  0  0  0  0  0
  1  2  1  0
  2  3  2  0
  3  4  1  0
  4  5  2  0
  5  6  1  0
  5  7  1  0
  7  8  2  0
  4  9  1  0
  9 10  1  0
  9 11  2  0
  8  2  1  0
  1 12  1  0
  1 13  1  0
  1 14  1  0
  3 15  1  0
  6 16  1  0
  6 17  1  0
  7 18  1  0
  8 19  1  0
M  CHG  2   9   1  10  -1
M  END
