
     RDKit          3D

 17 16  0  0  0  0  0  0  0  0999 V2000
   -2.3573    0.2248   -0.0329 C   0  0  0  0  0  0  0  0  0  0  0  0
   -1.4737   -0.6954   -0.8741 C   0  0  0  0  0  0  0  0  0  0  0  0
   -0.0100   -0.6697   -0.4141 C   0  0  0  0  0  0  0  0  0  0  0  0
    0.6359    0.6041   -0.7362 N   0  0  0  0  0  0  0  0  0  0  0  0
    1.9963    0.8930   -0.3781 C   0  0  0  0  0  0  0  0  0  0  0  0
    2.8104   -0.0697    0.2997 N   0  0  0  0  0  0  0  0  0  0  0  0
    2.6330    2.3535   -0.7568 S   0  0  0  0  0  0  0  0  0  0  0  0
   -2.3218   -0.0772    1.0355 H   0  0  0  0  0  0  0  0  0  0  0  0
   -2.0277    1.2807   -0.1252 H   0  0  0  0  0  0  0  0  0  0  0  0
   -3.4077    0.1526   -0.3855 H   0  0  0  0  0  0  0  0  0  0  0  0
   -1.8587   -1.7340   -0.7821 H   0  0  0  0  0  0  0  0  0  0  0  0
   -1.5396   -0.4024   -1.9445 H   0  0  0  0  0  0  0  0  0  0  0  0
    0.5353   -1.4903   -0.9283 H   0  0  0  0  0  0  0  0  0  0  0  0
    0.0377   -0.8491    0.6822 H   0  0  0  0  0  0  0  0  0  0  0  0
    0.1003    1.3351   -1.2581 H   0  0  0  0  0  0  0  0  0  0  0  0
    2.4510   -1.0167    0.5479 H   0  0  0  0  0  0  0  0  0  0  0  0
    3.7964    0.1605    0.5557 H   0  0  0  0  0  0  0  0  0  0  0  0
  1  2  1  0
  2  3  1  0
  3  4  1  0
  4  5  1  0
  5  6  1  0
  5  7  2  0
  1  8  1  0
  1  9  1  0
  1 10  1  0
  2 11  1  0
  2 12  1  0
  3 13  1  0
  3 14  1  0
  4 15  1  0
  6 16  1  0
  6 17  1  0
M  END
