
     RDKit          3D

 19 18  0  0  0  0  0  0  0  0999 V2000
    2.6517    1.1694    0.0518 C   0  0  0  0  0  0  0  0  0  0  0  0
    1.6400    0.1962   -0.4682 C   0  0  0  0  0  0  0  0  0  0  0  0
    0.8192   -0.4554    0.3673 C   0  0  0  0  0  0  0  0  0  0  0  0
   -0.2204   -1.4216   -0.1350 C   0  0  0  0  0  0  0  0  0  0  0  0
   -1.6441   -0.9262    0.1568 C   0  0  0  0  0  0  0  0  0  0  0  0
   -2.0618    0.2552   -0.7309 C   0  0  0  0  0  0  0  0  0  0  0  0
   -1.3503    1.4167   -0.3984 O   0  0  0  0  0  0  0  0  0  0  0  0
    2.1410    1.9916    0.5963 H   0  0  0  0  0  0  0  0  0  0  0  0
    3.2255    1.6016   -0.7944 H   0  0  0  0  0  0  0  0  0  0  0  0
    3.3566    0.6532    0.7374 H   0  0  0  0  0  0  0  0  0  0  0  0
    1.5761    0.0310   -1.5402 H   0  0  0  0  0  0  0  0  0  0  0  0
    0.8821   -0.2733    1.4370 H   0  0  0  0  0  0  0  0  0  0  0  0
   -0.0675   -2.3879    0.3913 H   0  0  0  0  0  0  0  0  0  0  0  0
   -0.1034   -1.6201   -1.2234 H   0  0  0  0  0  0  0  0  0  0  0  0
   -1.7450   -0.6517    1.2299 H   0  0  0  0  0  0  0  0  0  0  0  0
   -2.3471   -1.7656   -0.0356 H   0  0  0  0  0  0  0  0  0  0  0  0
   -1.8757    0.0102   -1.7982 H   0  0  0  0  0  0  0  0  0  0  0  0
   -3.1548    0.4355   -0.6171 H   0  0  0  0  0  0  0  0  0  0  0  0
   -1.7222    1.7413    0.4629 H   0  0  0  0  0  0  0  0  0  0  0  0
  1  2  1  0
  2  3  2  0
  3  4  1  0
  4  5  1  0
  5  6  1  0
  6  7  1  0
  1  8  1  0
  1  9  1  0
  1 10  1  0
  2 11  1  0
  3 12  1  0
  4 13  1  0
  4 14  1  0
  5 15  1  0
  5 16  1  0
  6 17  1  0
  6 18  1  0
  7 19  1  0
M  END
