
     RDKit          3D

 19 19  0  0  0  0  0  0  0  0999 V2000
    3.5624    0.9267   -0.3161 N   0  0  0  0  0  0  0  0  0  0  0  0
    2.1832    0.8808   -0.0574 N   0  0  0  0  0  0  0  0  0  0  0  0
    1.4652   -0.3622   -0.0295 C   0  0  0  0  0  0  0  0  0  0  0  0
    2.1007   -1.4497   -0.0948 O   0  0  0  0  0  0  0  0  0  0  0  0
   -0.0082   -0.3901    0.1146 C   0  0  0  0  0  0  0  0  0  0  0  0
   -0.6028   -1.3989    0.8939 C   0  0  0  0  0  0  0  0  0  0  0  0
   -1.9896   -1.4457    1.0569 C   0  0  0  0  0  0  0  0  0  0  0  0
   -2.7994   -0.4929    0.4379 C   0  0  0  0  0  0  0  0  0  0  0  0
   -2.2256    0.5030   -0.3548 C   0  0  0  0  0  0  0  0  0  0  0  0
   -0.8344    0.5561   -0.5311 C   0  0  0  0  0  0  0  0  0  0  0  0
   -0.2826    1.5272   -1.3665 O   0  0  0  0  0  0  0  0  0  0  0  0
    3.7239    0.4948   -1.2544 H   0  0  0  0  0  0  0  0  0  0  0  0
    4.0422    0.3335    0.3987 H   0  0  0  0  0  0  0  0  0  0  0  0
    1.6915    1.7739    0.1665 H   0  0  0  0  0  0  0  0  0  0  0  0
    0.0087   -2.1424    1.3907 H   0  0  0  0  0  0  0  0  0  0  0  0
   -2.4365   -2.2205    1.6664 H   0  0  0  0  0  0  0  0  0  0  0  0
   -3.8735   -0.5304    0.5663 H   0  0  0  0  0  0  0  0  0  0  0  0
   -2.8646    1.2279   -0.8429 H   0  0  0  0  0  0  0  0  0  0  0  0
   -0.8605    2.2088   -1.8444 H   0  0  0  0  0  0  0  0  0  0  0  0
  1  2  1  0
  2  3  1  0
  3  4  2  0
  3  5  1  0
  5  6  2  0
  6  7  1  0
  7  8  2  0
  8  9  1  0
  9 10  2  0
 10 11  1  0
 10  5  1  0
  1 12  1  0
  1 13  1  0
  2 14  1  0
  6 15  1  0
  7 16  1  0
  8 17  1  0
  9 18  1  0
 11 19  1  0
M  END
