
     RDKit          3D

 12 12  0  0  0  0  0  0  0  0999 V2000
    2.6976   -1.0162   -0.1545 O   0  0  0  0  0  0  0  0  0  0  0  0
    2.0412    0.0487   -0.0127 C   0  0  0  0  0  0  0  0  0  0  0  0
    0.5748    0.0242   -0.0022 C   0  0  0  0  0  0  0  0  0  0  0  0
   -0.2376    1.1304    0.1463 C   0  0  0  0  0  0  0  0  0  0  0  0
   -1.5359    0.6618    0.0986 C   0  0  0  0  0  0  0  0  0  0  0  0
   -1.4567   -0.7061   -0.0765 C   0  0  0  0  0  0  0  0  0  0  0  0
   -0.1688   -1.0902   -0.1374 N   0  0  0  0  0  0  0  0  0  0  0  0
    2.5672    0.9874    0.1021 H   0  0  0  0  0  0  0  0  0  0  0  0
    0.0755    2.1583    0.2744 H   0  0  0  0  0  0  0  0  0  0  0  0
   -2.4390    1.2514    0.1820 H   0  0  0  0  0  0  0  0  0  0  0  0
   -2.2971   -1.3831   -0.1550 H   0  0  0  0  0  0  0  0  0  0  0  0
    0.1787   -2.0668   -0.2651 H   0  0  0  0  0  0  0  0  0  0  0  0
  1  2  2  0
  2  3  1  0
  3  4  2  0
  4  5  1  0
  5  6  2  0
  6  7  1  0
  7  3  1  0
  2  8  1  0
  4  9  1  0
  5 10  1  0
  6 11  1  0
  7 12  1  0
M  END
