
     RDKit          3D

 21 22  0  0  0  0  0  0  0  0999 V2000
    3.5125    0.2251   -0.1735 C   0  0  0  0  0  0  0  0  0  0  0  0
    2.8893   -0.8588   -0.7899 C   0  0  0  0  0  0  0  0  0  0  0  0
    1.4951   -0.9580   -0.7947 C   0  0  0  0  0  0  0  0  0  0  0  0
    0.6947    0.0302   -0.1799 C   0  0  0  0  0  0  0  0  0  0  0  0
    1.3470    1.1213    0.4397 C   0  0  0  0  0  0  0  0  0  0  0  0
    2.7426    1.2127    0.4398 C   0  0  0  0  0  0  0  0  0  0  0  0
   -0.7967   -0.1103   -0.2053 C   0  0  0  0  0  0  0  0  0  0  0  0
   -1.6674    0.8320    0.3848 C   0  0  0  0  0  0  0  0  0  0  0  0
   -3.0487    0.6337    0.3209 C   0  0  0  0  0  0  0  0  0  0  0  0
   -3.5642   -0.4895   -0.3224 C   0  0  0  0  0  0  0  0  0  0  0  0
   -2.6854   -1.4050   -0.8970 C   0  0  0  0  0  0  0  0  0  0  0  0
   -1.3444   -1.1966   -0.8256 N   0  0  0  0  0  0  0  0  0  0  0  0
    4.5923    0.2999   -0.1709 H   0  0  0  0  0  0  0  0  0  0  0  0
    3.4872   -1.6254   -1.2659 H   0  0  0  0  0  0  0  0  0  0  0  0
    1.0480   -1.8142   -1.2832 H   0  0  0  0  0  0  0  0  0  0  0  0
    0.8038    1.9133    0.9288 H   0  0  0  0  0  0  0  0  0  0  0  0
    3.2284    2.0536    0.9180 H   0  0  0  0  0  0  0  0  0  0  0  0
   -1.3128    1.7144    0.8921 H   0  0  0  0  0  0  0  0  0  0  0  0
   -3.7203    1.3531    0.7716 H   0  0  0  0  0  0  0  0  0  0  0  0
   -4.6334   -0.6486   -0.3751 H   0  0  0  0  0  0  0  0  0  0  0  0
   -3.0677   -2.2828   -1.4005 H   0  0  0  0  0  0  0  0  0  0  0  0
  1  2  2  0
  2  3  1  0
  3  4  2  0
  4  5  1  0
  5  6  2  0
  4  7  1  0
  7  8  2  0
  8  9  1  0
  9 10  2  0
 10 11  1  0
 11 12  2  0
  6  1  1  0
 12  7  1  0
  1 13  1  0
  2 14  1  0
  3 15  1  0
  5 16  1  0
  6 17  1  0
  8 18  1  0
  9 19  1  0
 10 20  1  0
 11 21  1  0
M  END
