
     RDKit          3D

 24 25  0  0  0  0  0  0  0  0999 V2000
    2.6419    2.9590    1.5878 Cl  0  0  0  0  0  0  0  0  0  0  0  0
    2.5821    1.4443    0.7050 C   0  0  0  0  0  0  0  0  0  0  0  0
    3.7198    0.9779    0.0399 C   0  0  0  0  0  0  0  0  0  0  0  0
    3.6763   -0.2342   -0.6526 C   0  0  0  0  0  0  0  0  0  0  0  0
    2.4948   -0.9806   -0.6879 C   0  0  0  0  0  0  0  0  0  0  0  0
    1.3385   -0.5142   -0.0375 C   0  0  0  0  0  0  0  0  0  0  0  0
    1.3976    0.6999    0.6724 C   0  0  0  0  0  0  0  0  0  0  0  0
    0.0950   -1.3221   -0.0667 C   0  0  0  0  0  0  0  0  0  0  0  0
    0.1877   -2.5795   -0.1091 O   0  0  0  0  0  0  0  0  0  0  0  0
   -1.2537   -0.7049   -0.0479 C   0  0  0  0  0  0  0  0  0  0  0  0
   -2.3270   -1.3796    0.5614 C   0  0  0  0  0  0  0  0  0  0  0  0
   -3.6057   -0.8136    0.5695 C   0  0  0  0  0  0  0  0  0  0  0  0
   -3.8283    0.4238   -0.0390 C   0  0  0  0  0  0  0  0  0  0  0  0
   -2.7737    1.0952   -0.6619 C   0  0  0  0  0  0  0  0  0  0  0  0
   -1.4932    0.5337   -0.6726 C   0  0  0  0  0  0  0  0  0  0  0  0
    4.6383    1.5504    0.0636 H   0  0  0  0  0  0  0  0  0  0  0  0
    4.5595   -0.5964   -1.1628 H   0  0  0  0  0  0  0  0  0  0  0  0
    2.4803   -1.9165   -1.2328 H   0  0  0  0  0  0  0  0  0  0  0  0
    0.5320    1.0627    1.2125 H   0  0  0  0  0  0  0  0  0  0  0  0
   -2.1736   -2.3387    1.0407 H   0  0  0  0  0  0  0  0  0  0  0  0
   -4.4247   -1.3355    1.0474 H   0  0  0  0  0  0  0  0  0  0  0  0
   -4.8190    0.8597   -0.0328 H   0  0  0  0  0  0  0  0  0  0  0  0
   -2.9495    2.0490   -1.1423 H   0  0  0  0  0  0  0  0  0  0  0  0
   -0.6956    1.0601   -1.1814 H   0  0  0  0  0  0  0  0  0  0  0  0
  1  2  1  0
  2  3  2  0
  3  4  1  0
  4  5  2  0
  5  6  1  0
  6  7  2  0
  6  8  1  0
  8  9  2  0
  8 10  1  0
 10 11  2  0
 11 12  1  0
 12 13  2  0
 13 14  1  0
 14 15  2  0
  7  2  1  0
 15 10  1  0
  3 16  1  0
  4 17  1  0
  5 18  1  0
  7 19  1  0
 11 20  1  0
 12 21  1  0
 13 22  1  0
 14 23  1  0
 15 24  1  0
M  END
