
     RDKit          3D

 24 25  0  0  0  0  0  0  0  0999 V2000
   -3.6648    1.7953    0.6516 O   0  0  0  0  0  0  0  0  0  0  0  0
   -2.8292    0.7361    0.3043 C   0  0  0  0  0  0  0  0  0  0  0  0
   -1.4429    0.9181    0.2195 C   0  0  0  0  0  0  0  0  0  0  0  0
   -0.6003   -0.1535   -0.1247 C   0  0  0  0  0  0  0  0  0  0  0  0
   -1.1713   -1.4163   -0.4126 C   0  0  0  0  0  0  0  0  0  0  0  0
   -0.3987   -2.5050   -0.8224 O   0  0  0  0  0  0  0  0  0  0  0  0
   -2.5568   -1.5887   -0.3128 C   0  0  0  0  0  0  0  0  0  0  0  0
   -3.3814   -0.5195    0.0428 C   0  0  0  0  0  0  0  0  0  0  0  0
    0.8618    0.0686   -0.1554 C   0  0  0  0  0  0  0  0  0  0  0  0
    1.4081    1.0696   -0.9764 C   0  0  0  0  0  0  0  0  0  0  0  0
    2.7880    1.2961   -0.9876 C   0  0  0  0  0  0  0  0  0  0  0  0
    3.6300    0.5330   -0.1739 C   0  0  0  0  0  0  0  0  0  0  0  0
    3.0931   -0.4556    0.6553 C   0  0  0  0  0  0  0  0  0  0  0  0
    1.7139   -0.6854    0.6698 C   0  0  0  0  0  0  0  0  0  0  0  0
   -3.2961    2.7184    0.8486 H   0  0  0  0  0  0  0  0  0  0  0  0
   -1.0200    1.8911    0.4401 H   0  0  0  0  0  0  0  0  0  0  0  0
    0.5930   -2.4374   -1.0106 H   0  0  0  0  0  0  0  0  0  0  0  0
   -2.9978   -2.5541   -0.5269 H   0  0  0  0  0  0  0  0  0  0  0  0
   -4.4520   -0.6656    0.1093 H   0  0  0  0  0  0  0  0  0  0  0  0
    0.7667    1.6680   -1.6119 H   0  0  0  0  0  0  0  0  0  0  0  0
    3.2045    2.0643   -1.6263 H   0  0  0  0  0  0  0  0  0  0  0  0
    4.6977    0.7102   -0.1833 H   0  0  0  0  0  0  0  0  0  0  0  0
    3.7454   -1.0414    1.2900 H   0  0  0  0  0  0  0  0  0  0  0  0
    1.3092   -1.4461    1.3261 H   0  0  0  0  0  0  0  0  0  0  0  0
  1  2  1  0
  2  3  2  0
  3  4  1  0
  4  5  2  0
  5  6  1  0
  5  7  1  0
  7  8  2  0
  4  9  1  0
  9 10  2  0
 10 11  1  0
 11 12  2  0
 12 13  1  0
 13 14  2  0
  8  2  1  0
 14  9  1  0
  1 15  1  0
  3 16  1  0
  6 17  1  0
  7 18  1  0
  8 19  1  0
 10 20  1  0
 11 21  1  0
 12 22  1  0
 13 23  1  0
 14 24  1  0
M  END
