
     RDKit          3D

 32 32  0  0  0  0  0  0  0  0999 V2000
   -2.0078   -3.1013   -1.1484 C   0  0  0  0  0  0  0  0  0  0  0  0
   -1.7511   -1.6042   -1.2241 C   0  0  0  0  0  0  0  0  0  0  0  0
   -0.8574   -1.2399   -0.2000 O   0  0  0  0  0  0  0  0  0  0  0  0
   -0.5589    0.4351   -0.3174 P   0  0  0  0  0  5  0  0  0  0  0  0
    0.1455    0.7319   -1.6248 O   0  0  0  0  0  0  0  0  0  0  0  0
    0.5224    0.9104    1.0691 C   0  0  0  0  0  0  0  0  0  0  0  0
    1.7610    0.0594    1.0738 C   0  0  0  0  0  0  0  0  0  0  0  0
    1.7817   -1.1593    1.7730 C   0  0  0  0  0  0  0  0  0  0  0  0
    2.9231   -1.9666    1.7471 C   0  0  0  0  0  0  0  0  0  0  0  0
    4.0471   -1.5676    1.0185 C   0  0  0  0  0  0  0  0  0  0  0  0
    4.0303   -0.3622    0.3115 C   0  0  0  0  0  0  0  0  0  0  0  0
    2.8908    0.4481    0.3344 C   0  0  0  0  0  0  0  0  0  0  0  0
   -2.0399    1.2816   -0.2139 O   0  0  0  0  0  0  0  0  0  0  0  0
   -1.8340    2.6148   -0.6160 C   0  0  0  0  0  0  0  0  0  0  0  0
   -3.1353    3.3861   -0.4593 C   0  0  0  0  0  0  0  0  0  0  0  0
   -2.7125   -3.4031   -1.9518 H   0  0  0  0  0  0  0  0  0  0  0  0
   -1.0549   -3.6573   -1.2774 H   0  0  0  0  0  0  0  0  0  0  0  0
   -2.4512   -3.3616   -0.1638 H   0  0  0  0  0  0  0  0  0  0  0  0
   -2.7265   -1.0811   -1.1046 H   0  0  0  0  0  0  0  0  0  0  0  0
   -1.3228   -1.3792   -2.2272 H   0  0  0  0  0  0  0  0  0  0  0  0
   -0.0364    0.7842    2.0207 H   0  0  0  0  0  0  0  0  0  0  0  0
    0.7959    1.9825    0.9776 H   0  0  0  0  0  0  0  0  0  0  0  0
    0.9140   -1.4847    2.3335 H   0  0  0  0  0  0  0  0  0  0  0  0
    2.9351   -2.9034    2.2891 H   0  0  0  0  0  0  0  0  0  0  0  0
    4.9293   -2.1944    0.9984 H   0  0  0  0  0  0  0  0  0  0  0  0
    4.8991   -0.0571   -0.2573 H   0  0  0  0  0  0  0  0  0  0  0  0
    2.8871    1.3752   -0.2255 H   0  0  0  0  0  0  0  0  0  0  0  0
   -1.5345    2.6621   -1.6869 H   0  0  0  0  0  0  0  0  0  0  0  0
   -1.0638    3.1119    0.0143 H   0  0  0  0  0  0  0  0  0  0  0  0
   -3.9273    2.9276   -1.0887 H   0  0  0  0  0  0  0  0  0  0  0  0
   -3.4599    3.3719    0.6029 H   0  0  0  0  0  0  0  0  0  0  0  0
   -2.9882    4.4401   -0.7768 H   0  0  0  0  0  0  0  0  0  0  0  0
  1  2  1  0
  2  3  1  0
  3  4  1  0
  4  5  2  0
  4  6  1  0
  6  7  1  0
  7  8  2  0
  8  9  1  0
  9 10  2  0
 10 11  1  0
 11 12  2  0
  4 13  1  0
 13 14  1  0
 14 15  1  0
 12  7  1  0
  1 16  1  0
  1 17  1  0
  1 18  1  0
  2 19  1  0
  2 20  1  0
  6 21  1  0
  6 22  1  0
  8 23  1  0
  9 24  1  0
 10 25  1  0
 11 26  1  0
 12 27  1  0
 14 28  1  0
 14 29  1  0
 15 30  1  0
 15 31  1  0
 15 32  1  0
M  END
