
     RDKit          3D

 23 22  0  0  0  0  0  0  0  0999 V2000
   -3.5222    1.9571    0.0493 C   0  0  0  0  0  0  0  0  0  0  0  0
   -2.7946    0.7353    0.0327 O   0  0  0  0  0  0  0  0  0  0  0  0
   -2.2217    0.2165   -1.1320 C   0  0  0  0  0  0  0  0  0  0  0  0
   -2.3323    0.8262   -2.2308 O   0  0  0  0  0  0  0  0  0  0  0  0
   -1.4364   -1.0569   -1.0640 C   0  0  0  0  0  0  0  0  0  0  0  0
    0.0731   -0.7902   -0.9992 C   0  0  0  0  0  0  0  0  0  0  0  0
    0.4909   -0.1366    0.3242 C   0  0  0  0  0  0  0  0  0  0  0  0
    1.9753    0.0399    0.3724 C   0  0  0  0  0  0  0  0  0  0  0  0
    2.4941    1.1051   -0.0607 O   0  0  0  0  0  0  0  0  0  0  0  0
    2.7760   -0.9983    0.8568 O   0  0  0  0  0  0  0  0  0  0  0  0
    4.1947   -0.9110    0.9080 C   0  0  0  0  0  0  0  0  0  0  0  0
   -3.8761    2.1566    1.0815 H   0  0  0  0  0  0  0  0  0  0  0  0
   -2.8673    2.7936   -0.2745 H   0  0  0  0  0  0  0  0  0  0  0  0
   -4.4015    1.8854   -0.6254 H   0  0  0  0  0  0  0  0  0  0  0  0
   -1.7568   -1.6493   -0.1796 H   0  0  0  0  0  0  0  0  0  0  0  0
   -1.6571   -1.6633   -1.9690 H   0  0  0  0  0  0  0  0  0  0  0  0
    0.6023   -1.7629   -1.1052 H   0  0  0  0  0  0  0  0  0  0  0  0
    0.3760   -0.1442   -1.8533 H   0  0  0  0  0  0  0  0  0  0  0  0
    0.0014    0.8553    0.4337 H   0  0  0  0  0  0  0  0  0  0  0  0
    0.1751   -0.7755    1.1771 H   0  0  0  0  0  0  0  0  0  0  0  0
    4.5003   -0.0634    1.5575 H   0  0  0  0  0  0  0  0  0  0  0  0
    4.6030   -1.8524    1.3294 H   0  0  0  0  0  0  0  0  0  0  0  0
    4.6038   -0.7671   -0.1144 H   0  0  0  0  0  0  0  0  0  0  0  0
  1  2  1  0
  2  3  1  0
  3  4  2  0
  3  5  1  0
  5  6  1  0
  6  7  1  0
  7  8  1  0
  8  9  2  0
  8 10  1  0
 10 11  1  0
  1 12  1  0
  1 13  1  0
  1 14  1  0
  5 15  1  0
  5 16  1  0
  6 17  1  0
  6 18  1  0
  7 19  1  0
  7 20  1  0
 11 21  1  0
 11 22  1  0
 11 23  1  0
M  END
