
     RDKit          3D

 11 10  0  0  0  0  0  0  0  0999 V2000
   -1.2048   -0.9741    0.0820 C   0  0  0  0  0  0  0  0  0  0  0  0
   -0.8854    0.2197    0.5895 C   0  0  0  0  0  0  0  0  0  0  0  0
    0.1109    1.1245   -0.0829 C   0  0  0  0  0  0  0  0  0  0  0  0
    1.4778    0.7132    0.2194 N   0  0  0  0  0  0  0  0  0  0  0  0
    1.9934   -0.3383   -0.2793 C   0  0  0  0  0  0  0  0  0  0  0  0
    2.6442   -1.6702   -0.9107 S   0  0  0  0  0  0  0  0  0  0  0  0
   -1.9293   -1.6031    0.5888 H   0  0  0  0  0  0  0  0  0  0  0  0
   -0.7526   -1.3298   -0.8388 H   0  0  0  0  0  0  0  0  0  0  0  0
   -1.3629    0.5503    1.5072 H   0  0  0  0  0  0  0  0  0  0  0  0
   -0.0555    1.1543   -1.1828 H   0  0  0  0  0  0  0  0  0  0  0  0
   -0.0356    2.1533    0.3075 H   0  0  0  0  0  0  0  0  0  0  0  0
  1  2  2  3
  2  3  1  0
  3  4  1  0
  4  5  2  0
  5  6  2  0
  1  7  1  0
  1  8  1  0
  2  9  1  0
  3 10  1  0
  3 11  1  0
M  END
