
     RDKit          3D

 19 19  0  0  0  0  0  0  0  0999 V2000
   -2.9580    0.0972    0.0012 C   0  0  0  0  0  0  0  0  0  0  0  0
   -1.8589   -0.8608   -0.3459 C   0  0  0  0  0  0  0  0  0  0  0  0
   -2.1773   -2.0182   -0.7326 O   0  0  0  0  0  0  0  0  0  0  0  0
   -0.4200   -0.4943   -0.2507 C   0  0  0  0  0  0  0  0  0  0  0  0
    0.5020   -1.1480   -1.0905 C   0  0  0  0  0  0  0  0  0  0  0  0
    1.8609   -0.8292   -1.0460 C   0  0  0  0  0  0  0  0  0  0  0  0
    2.3264    0.1422   -0.1594 C   0  0  0  0  0  0  0  0  0  0  0  0
    3.6844    0.4518   -0.1291 O   0  0  0  0  0  0  0  0  0  0  0  0
    1.4264    0.7930    0.6917 C   0  0  0  0  0  0  0  0  0  0  0  0
    0.0592    0.4775    0.6602 C   0  0  0  0  0  0  0  0  0  0  0  0
   -0.8066    1.1150    1.5481 O   0  0  0  0  0  0  0  0  0  0  0  0
   -3.8897   -0.1801   -0.5362 H   0  0  0  0  0  0  0  0  0  0  0  0
   -2.6820    1.1291   -0.3019 H   0  0  0  0  0  0  0  0  0  0  0  0
   -3.1569    0.0623    1.0924 H   0  0  0  0  0  0  0  0  0  0  0  0
    0.1685   -1.8989   -1.7963 H   0  0  0  0  0  0  0  0  0  0  0  0
    2.5535   -1.3372   -1.7051 H   0  0  0  0  0  0  0  0  0  0  0  0
    4.0542    1.1516    0.5036 H   0  0  0  0  0  0  0  0  0  0  0  0
    1.7910    1.5393    1.3865 H   0  0  0  0  0  0  0  0  0  0  0  0
   -0.4772    1.8079    2.2100 H   0  0  0  0  0  0  0  0  0  0  0  0
  1  2  1  0
  2  3  2  0
  2  4  1  0
  4  5  2  0
  5  6  1  0
  6  7  2  0
  7  8  1  0
  7  9  1  0
  9 10  2  0
 10 11  1  0
 10  4  1  0
  1 12  1  0
  1 13  1  0
  1 14  1  0
  5 15  1  0
  6 16  1  0
  8 17  1  0
  9 18  1  0
 11 19  1  0
M  END
