
     RDKit          3D

 18 18  0  0  0  0  0  0  0  0999 V2000
    4.4171    0.7704    0.3319 O   0  0  0  0  0  0  0  0  0  0  0  0
    3.0476    0.8424    0.1890 N   0  0  0  0  0  0  0  0  0  0  0  0
    2.2881   -0.1977    0.3404 C   0  0  0  0  0  0  0  0  0  0  0  0
    0.8225   -0.1030    0.1837 C   0  0  0  0  0  0  0  0  0  0  0  0
    0.1951    1.1139   -0.1347 C   0  0  0  0  0  0  0  0  0  0  0  0
   -1.1942    1.1775   -0.2776 C   0  0  0  0  0  0  0  0  0  0  0  0
   -1.9840    0.0266   -0.1054 C   0  0  0  0  0  0  0  0  0  0  0  0
   -1.3533   -1.1882    0.2128 C   0  0  0  0  0  0  0  0  0  0  0  0
    0.0359   -1.2515    0.3557 C   0  0  0  0  0  0  0  0  0  0  0  0
   -3.4146    0.0881   -0.2518 N   0  0  0  0  0  4  0  0  0  0  0  0
   -4.1841   -1.0403   -0.0825 O   0  0  0  0  0  1  0  0  0  0  0  0
   -3.9804    1.1647   -0.5344 O   0  0  0  0  0  0  0  0  0  0  0  0
    4.8817   -0.1013    0.5614 H   0  0  0  0  0  0  0  0  0  0  0  0
    2.7332   -1.1551    0.5863 H   0  0  0  0  0  0  0  0  0  0  0  0
    0.7758    2.0173   -0.2735 H   0  0  0  0  0  0  0  0  0  0  0  0
   -1.6504    2.1280   -0.5231 H   0  0  0  0  0  0  0  0  0  0  0  0
   -1.9334   -2.0913    0.3516 H   0  0  0  0  0  0  0  0  0  0  0  0
    0.4972   -2.2004    0.6013 H   0  0  0  0  0  0  0  0  0  0  0  0
  1  2  1  0
  2  3  2  0
  3  4  1  0
  4  5  2  0
  5  6  1  0
  6  7  2  0
  7  8  1  0
  8  9  2  0
  7 10  1  0
 10 11  1  0
 10 12  2  0
  9  4  1  0
  1 13  1  0
  3 14  1  0
  5 15  1  0
  6 16  1  0
  8 17  1  0
  9 18  1  0
M  CHG  2  10   1  11  -1
M  END
