
     RDKit          3D

 37 37  0  0  0  0  0  0  0  0999 V2000
    3.2180    0.7415    1.4332 C   0  0  0  0  0  0  0  0  0  0  0  0
    2.5739   -0.1894    0.3822 C   0  0  0  0  0  0  0  0  0  0  0  0
    3.4927   -0.2771   -0.8563 C   0  0  0  0  0  0  0  0  0  0  0  0
    2.4901   -1.6055    1.0022 C   0  0  0  0  0  0  0  0  0  0  0  0
    1.1991    0.3793   -0.0357 C   0  0  0  0  0  0  0  0  0  0  0  0
   -0.0124   -0.3342    0.1363 C   0  0  0  0  0  0  0  0  0  0  0  0
   -1.2606    0.2091   -0.2552 C   0  0  0  0  0  0  0  0  0  0  0  0
   -1.2682    1.4964   -0.8288 C   0  0  0  0  0  0  0  0  0  0  0  0
   -0.0886    2.2146   -1.0067 C   0  0  0  0  0  0  0  0  0  0  0  0
    1.1317    1.6625   -0.6147 C   0  0  0  0  0  0  0  0  0  0  0  0
   -0.1405    3.4846   -1.5780 O   0  0  0  0  0  0  0  0  0  0  0  0
   -2.5967   -0.5470   -0.0792 C   0  0  0  0  0  0  0  0  0  0  0  0
   -3.5369    0.2744    0.8304 C   0  0  0  0  0  0  0  0  0  0  0  0
   -3.2621   -0.7441   -1.4590 C   0  0  0  0  0  0  0  0  0  0  0  0
   -2.4310   -1.9459    0.5631 C   0  0  0  0  0  0  0  0  0  0  0  0
    4.1898    0.3298    1.7825 H   0  0  0  0  0  0  0  0  0  0  0  0
    2.5483    0.8510    2.3136 H   0  0  0  0  0  0  0  0  0  0  0  0
    3.4169    1.7517    1.0189 H   0  0  0  0  0  0  0  0  0  0  0  0
    3.6938    0.7249   -1.2892 H   0  0  0  0  0  0  0  0  0  0  0  0
    4.4743   -0.7252   -0.5887 H   0  0  0  0  0  0  0  0  0  0  0  0
    3.0229   -0.9085   -1.6413 H   0  0  0  0  0  0  0  0  0  0  0  0
    2.0666   -2.3324    0.2757 H   0  0  0  0  0  0  0  0  0  0  0  0
    1.8688   -1.5991    1.9240 H   0  0  0  0  0  0  0  0  0  0  0  0
    3.5006   -1.9720    1.2865 H   0  0  0  0  0  0  0  0  0  0  0  0
    0.0161   -1.3134    0.5754 H   0  0  0  0  0  0  0  0  0  0  0  0
   -2.1950    1.9560   -1.1445 H   0  0  0  0  0  0  0  0  0  0  0  0
    2.0296    2.2458   -0.7665 H   0  0  0  0  0  0  0  0  0  0  0  0
    0.6970    4.0364   -1.7230 H   0  0  0  0  0  0  0  0  0  0  0  0
   -3.0543    0.4635    1.8137 H   0  0  0  0  0  0  0  0  0  0  0  0
   -4.4897   -0.2702    1.0077 H   0  0  0  0  0  0  0  0  0  0  0  0
   -3.7954    1.2531    0.3752 H   0  0  0  0  0  0  0  0  0  0  0  0
   -2.5797   -1.2961   -2.1412 H   0  0  0  0  0  0  0  0  0  0  0  0
   -4.2052   -1.3250   -1.3632 H   0  0  0  0  0  0  0  0  0  0  0  0
   -3.5184    0.2263   -1.9328 H   0  0  0  0  0  0  0  0  0  0  0  0
   -1.7908   -2.5992   -0.0686 H   0  0  0  0  0  0  0  0  0  0  0  0
   -1.9886   -1.8659    1.5798 H   0  0  0  0  0  0  0  0  0  0  0  0
   -3.4161   -2.4503    0.6693 H   0  0  0  0  0  0  0  0  0  0  0  0
  1  2  1  0
  2  3  1  0
  2  4  1  0
  2  5  1  0
  5  6  2  0
  6  7  1  0
  7  8  2  0
  8  9  1  0
  9 10  2  0
  9 11  1  0
  7 12  1  0
 12 13  1  0
 12 14  1  0
 12 15  1  0
 10  5  1  0
  1 16  1  0
  1 17  1  0
  1 18  1  0
  3 19  1  0
  3 20  1  0
  3 21  1  0
  4 22  1  0
  4 23  1  0
  4 24  1  0
  6 25  1  0
  8 26  1  0
 10 27  1  0
 11 28  1  0
 13 29  1  0
 13 30  1  0
 13 31  1  0
 14 32  1  0
 14 33  1  0
 14 34  1  0
 15 35  1  0
 15 36  1  0
 15 37  1  0
M  END
