
     RDKit          3D

 14 14  0  0  0  0  0  0  0  0999 V2000
   -2.2208    0.8577    0.1062 C   0  0  0  0  0  0  0  0  0  0  0  0
   -1.3692   -0.2364   -0.4531 C   0  0  0  0  0  0  0  0  0  0  0  0
   -1.9091   -1.1978   -1.0636 O   0  0  0  0  0  0  0  0  0  0  0  0
    0.0919   -0.1945   -0.2937 C   0  0  0  0  0  0  0  0  0  0  0  0
    0.9865   -1.1376   -0.7611 C   0  0  0  0  0  0  0  0  0  0  0  0
    2.2327   -0.6862   -0.3828 C   0  0  0  0  0  0  0  0  0  0  0  0
    2.0226    0.5006    0.2899 C   0  0  0  0  0  0  0  0  0  0  0  0
    0.7371    0.7670    0.3265 O   0  0  0  0  0  0  0  0  0  0  0  0
   -1.9341    1.8266   -0.3536 H   0  0  0  0  0  0  0  0  0  0  0  0
   -3.2939    0.6644   -0.1056 H   0  0  0  0  0  0  0  0  0  0  0  0
   -2.0781    0.9174    1.2056 H   0  0  0  0  0  0  0  0  0  0  0  0
    0.7621   -2.0430   -1.3098 H   0  0  0  0  0  0  0  0  0  0  0  0
    3.1834   -1.1653   -0.5744 H   0  0  0  0  0  0  0  0  0  0  0  0
    2.7891    1.1271    0.7260 H   0  0  0  0  0  0  0  0  0  0  0  0
  1  2  1  0
  2  3  2  0
  2  4  1  0
  4  5  2  0
  5  6  1  0
  6  7  2  0
  7  8  1  0
  8  4  1  0
  1  9  1  0
  1 10  1  0
  1 11  1  0
  5 12  1  0
  6 13  1  0
  7 14  1  0
M  END
