
     RDKit          3D

 17 17  0  0  0  0  0  0  0  0999 V2000
    2.6649    0.8888    0.6573 C   0  0  0  0  0  0  0  0  0  0  0  0
    2.0832   -0.1459   -0.2517 C   0  0  0  0  0  0  0  0  0  0  0  0
    2.8477   -0.8665   -0.9479 O   0  0  0  0  0  0  0  0  0  0  0  0
    0.6263   -0.3247   -0.3355 C   0  0  0  0  0  0  0  0  0  0  0  0
   -0.0347   -1.2419   -1.1325 C   0  0  0  0  0  0  0  0  0  0  0  0
   -1.3783   -1.0529   -0.8864 C   0  0  0  0  0  0  0  0  0  0  0  0
   -1.4483   -0.0320    0.0407 C   0  0  0  0  0  0  0  0  0  0  0  0
   -2.7016    0.5200    0.6316 C   0  0  0  0  0  0  0  0  0  0  0  0
   -0.2419    0.3809    0.3534 O   0  0  0  0  0  0  0  0  0  0  0  0
    3.7739    0.8854    0.5939 H   0  0  0  0  0  0  0  0  0  0  0  0
    2.3657    0.6765    1.7051 H   0  0  0  0  0  0  0  0  0  0  0  0
    2.2928    1.8935    0.3665 H   0  0  0  0  0  0  0  0  0  0  0  0
    0.4059   -1.9626   -1.8089 H   0  0  0  0  0  0  0  0  0  0  0  0
   -2.2041   -1.5950   -1.3280 H   0  0  0  0  0  0  0  0  0  0  0  0
   -3.4248    0.7596   -0.1758 H   0  0  0  0  0  0  0  0  0  0  0  0
   -3.1501   -0.2289    1.3170 H   0  0  0  0  0  0  0  0  0  0  0  0
   -2.4765    1.4458    1.2012 H   0  0  0  0  0  0  0  0  0  0  0  0
  1  2  1  0
  2  3  2  0
  2  4  1  0
  4  5  2  0
  5  6  1  0
  6  7  2  0
  7  8  1  0
  7  9  1  0
  9  4  1  0
  1 10  1  0
  1 11  1  0
  1 12  1  0
  5 13  1  0
  6 14  1  0
  8 15  1  0
  8 16  1  0
  8 17  1  0
M  END
