
     RDKit          3D

  9  8  0  0  0  0  0  0  0  0999 V2000
   -1.3447   -0.2181    0.1165 C   0  0  0  0  0  0  0  0  0  0  0  0
   -0.1424    0.6002   -0.2245 C   0  0  0  0  0  0  0  0  0  0  0  0
   -0.2860    1.7289   -0.7632 O   0  0  0  0  0  0  0  0  0  0  0  0
    1.1808    0.1123    0.0565 C   0  0  0  0  0  0  0  0  0  0  0  0
    2.2899   -0.2971    0.2922 C   0  0  0  0  0  0  0  0  0  0  0  0
   -1.0509   -1.1826    0.5834 H   0  0  0  0  0  0  0  0  0  0  0  0
   -1.9862    0.3428    0.8280 H   0  0  0  0  0  0  0  0  0  0  0  0
   -1.9239   -0.4296   -0.8067 H   0  0  0  0  0  0  0  0  0  0  0  0
    3.2635   -0.6567    0.4992 H   0  0  0  0  0  0  0  0  0  0  0  0
  1  2  1  0
  2  3  2  0
  2  4  1  0
  4  5  3  0
  1  6  1  0
  1  7  1  0
  1  8  1  0
  5  9  1  0
M  END
