
     RDKit          3D

 22 22  0  0  0  0  0  0  0  0999 V2000
    3.9548    0.1220   -0.2871 C   0  0  0  0  0  0  0  0  0  0  0  0
    2.6154   -0.0780    0.3359 C   0  0  0  0  0  0  0  0  0  0  0  0
    2.5181   -0.1364    1.5917 O   0  0  0  0  0  0  0  0  0  0  0  0
    1.5045   -0.3058   -0.4875 O   0  0  0  0  0  0  0  0  0  0  0  0
    0.1627   -0.2725   -0.0749 C   0  0  0  0  0  0  0  0  0  0  0  0
   -0.2652    0.4971    0.9378 C   0  0  0  0  0  0  0  0  0  0  0  0
   -1.7192    0.4877    1.3093 C   0  0  0  0  0  0  0  0  0  0  0  0
   -2.5956    0.6033    0.0509 C   0  0  0  0  0  0  0  0  0  0  0  0
   -2.1194   -0.2897   -1.1261 C   0  0  0  0  0  0  0  0  0  0  0  0
   -0.8440   -1.1012   -0.8252 C   0  0  0  0  0  0  0  0  0  0  0  0
    4.5706    0.8011    0.3397 H   0  0  0  0  0  0  0  0  0  0  0  0
    3.8390    0.5721   -1.2953 H   0  0  0  0  0  0  0  0  0  0  0  0
    4.4687   -0.8570   -0.3816 H   0  0  0  0  0  0  0  0  0  0  0  0
    0.4033    1.1762    1.4493 H   0  0  0  0  0  0  0  0  0  0  0  0
   -1.9504   -0.4659    1.8320 H   0  0  0  0  0  0  0  0  0  0  0  0
   -1.9391    1.3261    2.0044 H   0  0  0  0  0  0  0  0  0  0  0  0
   -2.5965    1.6652   -0.2808 H   0  0  0  0  0  0  0  0  0  0  0  0
   -3.6434    0.3444    0.3172 H   0  0  0  0  0  0  0  0  0  0  0  0
   -2.9312   -0.9928   -1.4131 H   0  0  0  0  0  0  0  0  0  0  0  0
   -1.9238    0.3576   -2.0093 H   0  0  0  0  0  0  0  0  0  0  0  0
   -1.1062   -1.9883   -0.2088 H   0  0  0  0  0  0  0  0  0  0  0  0
   -0.4033   -1.4653   -1.7782 H   0  0  0  0  0  0  0  0  0  0  0  0
  1  2  1  0
  2  3  2  0
  2  4  1  0
  4  5  1  0
  5  6  2  0
  6  7  1  0
  7  8  1  0
  8  9  1  0
  9 10  1  0
 10  5  1  0
  1 11  1  0
  1 12  1  0
  1 13  1  0
  6 14  1  0
  7 15  1  0
  7 16  1  0
  8 17  1  0
  8 18  1  0
  9 19  1  0
  9 20  1  0
 10 21  1  0
 10 22  1  0
M  END
