
     RDKit          3D

 17 17  0  0  0  0  0  0  0  0999 V2000
   -2.7238    0.0592    0.1801 C   0  0  0  0  0  0  0  0  0  0  0  0
   -1.2248    0.0275    0.1026 C   0  0  0  0  0  0  0  0  0  0  0  0
   -0.5102    1.1834   -0.2503 C   0  0  0  0  0  0  0  0  0  0  0  0
   -1.1637    2.3460   -0.5030 F   0  0  0  0  0  0  0  0  0  0  0  0
    0.8847    1.1474   -0.3463 C   0  0  0  0  0  0  0  0  0  0  0  0
    1.5886   -0.0456   -0.1006 C   0  0  0  0  0  0  0  0  0  0  0  0
    0.8667   -1.2027    0.2393 C   0  0  0  0  0  0  0  0  0  0  0  0
   -0.5273   -1.1673    0.3354 C   0  0  0  0  0  0  0  0  0  0  0  0
    3.0241   -0.0856   -0.1988 N   0  0  0  0  0  4  0  0  0  0  0  0
    3.7091   -1.2549    0.0408 O   0  0  0  0  0  1  0  0  0  0  0  0
    3.6708    0.9387   -0.5015 O   0  0  0  0  0  0  0  0  0  0  0  0
   -3.0577    0.9516    0.7506 H   0  0  0  0  0  0  0  0  0  0  0  0
   -3.1465    0.1038   -0.8454 H   0  0  0  0  0  0  0  0  0  0  0  0
   -3.1211   -0.8433    0.6918 H   0  0  0  0  0  0  0  0  0  0  0  0
    1.4135    2.0527   -0.6158 H   0  0  0  0  0  0  0  0  0  0  0  0
    1.3790   -2.1370    0.4288 H   0  0  0  0  0  0  0  0  0  0  0  0
   -1.0613   -2.0738    0.5924 H   0  0  0  0  0  0  0  0  0  0  0  0
  1  2  1  0
  2  3  2  0
  3  4  1  0
  3  5  1  0
  5  6  2  0
  6  7  1  0
  7  8  2  0
  6  9  1  0
  9 10  1  0
  9 11  2  0
  8  2  1  0
  1 12  1  0
  1 13  1  0
  1 14  1  0
  5 15  1  0
  7 16  1  0
  8 17  1  0
M  CHG  2   9   1  10  -1
M  END
