
     RDKit          3D

 19 19  0  0  0  0  0  0  0  0999 V2000
    2.4847    0.1878   -0.4791 C   0  0  0  0  0  0  0  0  0  0  0  0
    1.5691   -0.8313    0.1912 C   0  0  0  0  0  0  0  0  0  0  0  0
    0.1232   -0.4285    0.0455 C   0  0  0  0  0  0  0  0  0  0  0  0
   -0.4802    0.4538    0.9651 C   0  0  0  0  0  0  0  0  0  0  0  0
    0.2499    0.9496    2.0453 O   0  0  0  0  0  0  0  0  0  0  0  0
   -1.8189    0.8353    0.7906 C   0  0  0  0  0  0  0  0  0  0  0  0
   -2.5529    0.3536   -0.2959 C   0  0  0  0  0  0  0  0  0  0  0  0
   -1.9544   -0.5083   -1.2169 C   0  0  0  0  0  0  0  0  0  0  0  0
   -0.6218   -0.8947   -1.0516 C   0  0  0  0  0  0  0  0  0  0  0  0
    2.3610    1.1867   -0.0088 H   0  0  0  0  0  0  0  0  0  0  0  0
    3.5423   -0.1303   -0.3643 H   0  0  0  0  0  0  0  0  0  0  0  0
    2.2508    0.2614   -1.5627 H   0  0  0  0  0  0  0  0  0  0  0  0
    1.8393   -0.9205    1.2655 H   0  0  0  0  0  0  0  0  0  0  0  0
    1.7377   -1.8294   -0.2689 H   0  0  0  0  0  0  0  0  0  0  0  0
   -0.1623    1.5859    2.7177 H   0  0  0  0  0  0  0  0  0  0  0  0
   -2.2900    1.5086    1.4954 H   0  0  0  0  0  0  0  0  0  0  0  0
   -3.5850    0.6523   -0.4265 H   0  0  0  0  0  0  0  0  0  0  0  0
   -2.5228   -0.8751   -2.0619 H   0  0  0  0  0  0  0  0  0  0  0  0
   -0.1697   -1.5570   -1.7796 H   0  0  0  0  0  0  0  0  0  0  0  0
  1  2  1  0
  2  3  1  0
  3  4  2  0
  4  5  1  0
  4  6  1  0
  6  7  2  0
  7  8  1  0
  8  9  2  0
  9  3  1  0
  1 10  1  0
  1 11  1  0
  1 12  1  0
  2 13  1  0
  2 14  1  0
  5 15  1  0
  6 16  1  0
  7 17  1  0
  8 18  1  0
  9 19  1  0
M  END
