
     RDKit          3D

 12 11  0  0  0  0  0  0  0  0999 V2000
    1.9730   -0.1919   -1.8169 Cl  0  0  0  0  0  0  0  0  0  0  0  0
    1.5377   -0.2456   -0.0921 C   0  0  0  0  0  0  0  0  0  0  0  0
    0.5873    0.8761    0.2256 C   0  0  0  0  0  0  0  0  0  0  0  0
   -0.7509    0.7513    0.3039 C   0  0  0  0  0  0  0  0  0  0  0  0
   -1.5003   -0.5431    0.1439 C   0  0  0  0  0  0  0  0  0  0  0  0
   -1.4596   -1.0947   -1.5500 Cl  0  0  0  0  0  0  0  0  0  0  0  0
    2.4628   -0.1113    0.5062 H   0  0  0  0  0  0  0  0  0  0  0  0
    1.1187   -1.2416    0.1543 H   0  0  0  0  0  0  0  0  0  0  0  0
    1.0144    1.8666    0.3541 H   0  0  0  0  0  0  0  0  0  0  0  0
   -1.3319    1.6406    0.5312 H   0  0  0  0  0  0  0  0  0  0  0  0
   -2.5625   -0.3823    0.4237 H   0  0  0  0  0  0  0  0  0  0  0  0
   -1.0887   -1.3241    0.8162 H   0  0  0  0  0  0  0  0  0  0  0  0
  1  2  1  0
  2  3  1  0
  3  4  2  0
  4  5  1  0
  5  6  1  0
  2  7  1  0
  2  8  1  0
  3  9  1  0
  4 10  1  0
  5 11  1  0
  5 12  1  0
M  END
