
     RDKit          3D

 28 29  0  0  0  0  0  0  0  0999 V2000
    4.3363    2.3192   -0.2755 N   0  0  0  0  0  0  0  0  0  0  0  0
    3.5820    1.1559    0.0748 C   0  0  0  0  0  0  0  0  0  0  0  0
    2.1919    1.1336   -0.1109 C   0  0  0  0  0  0  0  0  0  0  0  0
    1.4442   -0.0011    0.2290 C   0  0  0  0  0  0  0  0  0  0  0  0
    2.1042   -1.1255    0.7619 C   0  0  0  0  0  0  0  0  0  0  0  0
    3.4893   -1.1048    0.9476 C   0  0  0  0  0  0  0  0  0  0  0  0
    4.2272    0.0310    0.6058 C   0  0  0  0  0  0  0  0  0  0  0  0
    0.0572    0.0297    0.0229 O   0  0  0  0  0  0  0  0  0  0  0  0
   -0.8264   -1.0473    0.3213 C   0  0  0  0  0  0  0  0  0  0  0  0
   -2.2285   -0.6462   -0.0321 C   0  0  0  0  0  0  0  0  0  0  0  0
   -3.0354    0.0126    0.9104 C   0  0  0  0  0  0  0  0  0  0  0  0
   -4.3287    0.4196    0.5676 C   0  0  0  0  0  0  0  0  0  0  0  0
   -4.8195    0.1832   -0.7196 C   0  0  0  0  0  0  0  0  0  0  0  0
   -4.0160   -0.4562   -1.6677 C   0  0  0  0  0  0  0  0  0  0  0  0
   -2.7221   -0.8648   -1.3289 C   0  0  0  0  0  0  0  0  0  0  0  0
    3.8649    3.1627   -0.6719 H   0  0  0  0  0  0  0  0  0  0  0  0
    5.3717    2.3456   -0.1409 H   0  0  0  0  0  0  0  0  0  0  0  0
    1.6876    2.0000   -0.5210 H   0  0  0  0  0  0  0  0  0  0  0  0
    1.5578   -2.0177    1.0351 H   0  0  0  0  0  0  0  0  0  0  0  0
    3.9920   -1.9714    1.3575 H   0  0  0  0  0  0  0  0  0  0  0  0
    5.2997    0.0348    0.7544 H   0  0  0  0  0  0  0  0  0  0  0  0
   -0.7648   -1.2958    1.4035 H   0  0  0  0  0  0  0  0  0  0  0  0
   -0.5319   -1.9479   -0.2609 H   0  0  0  0  0  0  0  0  0  0  0  0
   -2.6635    0.2108    1.9081 H   0  0  0  0  0  0  0  0  0  0  0  0
   -4.9490    0.9219    1.2986 H   0  0  0  0  0  0  0  0  0  0  0  0
   -5.8202    0.5002   -0.9837 H   0  0  0  0  0  0  0  0  0  0  0  0
   -4.3942   -0.6318   -2.6665 H   0  0  0  0  0  0  0  0  0  0  0  0
   -2.1061   -1.3502   -2.0759 H   0  0  0  0  0  0  0  0  0  0  0  0
  1  2  1  0
  2  3  2  0
  3  4  1  0
  4  5  2  0
  5  6  1  0
  6  7  2  0
  4  8  1  0
  8  9  1  0
  9 10  1  0
 10 11  2  0
 11 12  1  0
 12 13  2  0
 13 14  1  0
 14 15  2  0
  7  2  1  0
 15 10  1  0
  1 16  1  0
  1 17  1  0
  3 18  1  0
  5 19  1  0
  6 20  1  0
  7 21  1  0
  9 22  1  0
  9 23  1  0
 11 24  1  0
 12 25  1  0
 13 26  1  0
 14 27  1  0
 15 28  1  0
M  END
