
     RDKit          3D

 14 14  0  0  0  0  0  0  0  0999 V2000
    0.6089    2.4465    0.0596 F   0  0  0  0  0  0  0  0  0  0  0  0
    0.0660    1.2038    0.0305 C   0  0  0  0  0  0  0  0  0  0  0  0
   -1.3282    1.0843    0.0342 C   0  0  0  0  0  0  0  0  0  0  0  0
   -1.9278   -0.1758    0.0049 C   0  0  0  0  0  0  0  0  0  0  0  0
   -1.1359   -1.3240   -0.0283 C   0  0  0  0  0  0  0  0  0  0  0  0
    0.2575   -1.2153   -0.0323 C   0  0  0  0  0  0  0  0  0  0  0  0
    0.8792    0.0494   -0.0030 C   0  0  0  0  0  0  0  0  0  0  0  0
    2.3181    0.1493   -0.0074 N   0  0  0  0  0  4  0  0  0  0  0  0
    2.9444    1.3740    0.0208 O   0  0  0  0  0  1  0  0  0  0  0  0
    3.0242   -0.8802   -0.0372 O   0  0  0  0  0  0  0  0  0  0  0  0
   -1.9466    1.9724    0.0599 H   0  0  0  0  0  0  0  0  0  0  0  0
   -3.0067   -0.2622    0.0079 H   0  0  0  0  0  0  0  0  0  0  0  0
   -1.6019   -2.3007   -0.0511 H   0  0  0  0  0  0  0  0  0  0  0  0
    0.8489   -2.1215   -0.0584 H   0  0  0  0  0  0  0  0  0  0  0  0
  1  2  1  0
  2  3  2  0
  3  4  1  0
  4  5  2  0
  5  6  1  0
  6  7  2  0
  7  8  1  0
  8  9  1  0
  8 10  2  0
  7  2  1  0
  3 11  1  0
  4 12  1  0
  5 13  1  0
  6 14  1  0
M  CHG  2   8   1   9  -1
M  END
