
     RDKit          3D

 20 19  0  0  0  0  0  0  0  0999 V2000
   -2.4765    0.3993    0.0149 C   0  0  0  0  0  0  0  0  0  0  0  0
   -1.8015    0.1367    1.3608 C   0  0  0  0  0  0  0  0  0  0  0  0
   -0.2691    0.1980    1.2755 C   0  0  0  0  0  0  0  0  0  0  0  0
    0.3287   -1.0086    0.5384 C   0  0  0  0  0  0  0  0  0  0  0  0
    1.7892   -0.9478    0.5601 N   0  0  0  0  0  0  0  0  0  0  0  0
    2.5688   -0.0357   -0.2320 C   0  0  0  0  0  0  0  0  0  0  0  0
    1.9659    0.8083   -1.2189 N   0  0  0  0  0  0  0  0  0  0  0  0
    4.1920    0.0172   -0.0229 S   0  0  0  0  0  0  0  0  0  0  0  0
   -3.5761    0.4549    0.1587 H   0  0  0  0  0  0  0  0  0  0  0  0
   -2.2633   -0.4219   -0.6999 H   0  0  0  0  0  0  0  0  0  0  0  0
   -2.1276    1.3628   -0.4138 H   0  0  0  0  0  0  0  0  0  0  0  0
   -2.1443    0.9131    2.0788 H   0  0  0  0  0  0  0  0  0  0  0  0
   -2.1253   -0.8512    1.7547 H   0  0  0  0  0  0  0  0  0  0  0  0
    0.0410    1.1463    0.7875 H   0  0  0  0  0  0  0  0  0  0  0  0
    0.1361    0.2112    2.3110 H   0  0  0  0  0  0  0  0  0  0  0  0
   -0.0293   -1.0683   -0.5097 H   0  0  0  0  0  0  0  0  0  0  0  0
    0.0020   -1.9393    1.0518 H   0  0  0  0  0  0  0  0  0  0  0  0
    2.2918   -1.6229    1.1802 H   0  0  0  0  0  0  0  0  0  0  0  0
    2.5528    1.4697   -1.7745 H   0  0  0  0  0  0  0  0  0  0  0  0
    0.9445    0.7781   -1.4250 H   0  0  0  0  0  0  0  0  0  0  0  0
  1  2  1  0
  2  3  1  0
  3  4  1  0
  4  5  1  0
  5  6  1  0
  6  7  1  0
  6  8  2  0
  1  9  1  0
  1 10  1  0
  1 11  1  0
  2 12  1  0
  2 13  1  0
  3 14  1  0
  3 15  1  0
  4 16  1  0
  4 17  1  0
  5 18  1  0
  7 19  1  0
  7 20  1  0
M  END
