
     RDKit          3D

 17 17  0  0  0  0  0  0  0  0999 V2000
    2.6101   -0.3798   -0.9306 O   0  0  0  0  0  0  0  0  0  0  0  0
    2.0065   -0.3854    0.3339 C   0  0  0  0  0  0  0  0  0  0  0  0
    0.5096   -0.2878    0.1931 C   0  0  0  0  0  0  0  0  0  0  0  0
   -0.2550   -1.4603    0.0678 C   0  0  0  0  0  0  0  0  0  0  0  0
   -1.6409   -1.3863   -0.0952 C   0  0  0  0  0  0  0  0  0  0  0  0
   -2.2744   -0.1431   -0.1465 C   0  0  0  0  0  0  0  0  0  0  0  0
   -1.5230    1.0297   -0.0403 C   0  0  0  0  0  0  0  0  0  0  0  0
   -0.1310    0.9659    0.1231 C   0  0  0  0  0  0  0  0  0  0  0  0
    0.6140    2.1415    0.2142 O   0  0  0  0  0  0  0  0  0  0  0  0
    2.5997    0.5615   -1.2464 H   0  0  0  0  0  0  0  0  0  0  0  0
    2.4033    0.4452    0.9607 H   0  0  0  0  0  0  0  0  0  0  0  0
    2.2780   -1.3295    0.8526 H   0  0  0  0  0  0  0  0  0  0  0  0
    0.2223   -2.4321    0.0969 H   0  0  0  0  0  0  0  0  0  0  0  0
   -2.2239   -2.2938   -0.1853 H   0  0  0  0  0  0  0  0  0  0  0  0
   -3.3478   -0.0881   -0.2740 H   0  0  0  0  0  0  0  0  0  0  0  0
   -2.0226    1.9889   -0.0891 H   0  0  0  0  0  0  0  0  0  0  0  0
    0.1751    3.0535    0.1653 H   0  0  0  0  0  0  0  0  0  0  0  0
  1  2  1  0
  2  3  1  0
  3  4  2  0
  4  5  1  0
  5  6  2  0
  6  7  1  0
  7  8  2  0
  8  9  1  0
  8  3  1  0
  1 10  1  0
  2 11  1  0
  2 12  1  0
  4 13  1  0
  5 14  1  0
  6 15  1  0
  7 16  1  0
  9 17  1  0
M  END
