
     RDKit          3D

 25 25  0  0  0  0  0  0  0  0999 V2000
   -2.1728   -0.5304   -1.3007 C   0  0  0  0  0  0  0  0  0  0  0  0
   -1.9633    0.5863   -0.2719 C   0  0  0  0  0  0  0  0  0  0  0  0
   -0.8875    0.2700    0.8116 C   0  0  0  0  0  0  0  0  0  0  0  0
   -0.6954    1.5165    1.6894 C   0  0  0  0  0  0  0  0  0  0  0  0
   -1.3729   -0.7521    1.6537 O   0  0  0  0  0  0  0  0  0  0  0  0
    0.4785   -0.1011    0.2122 C   0  0  0  0  0  0  0  0  0  0  0  0
    1.0372    0.6616   -0.8370 C   0  0  0  0  0  0  0  0  0  0  0  0
    2.2976    0.3501   -1.3547 C   0  0  0  0  0  0  0  0  0  0  0  0
    3.0329   -0.7082   -0.8209 C   0  0  0  0  0  0  0  0  0  0  0  0
    2.5151   -1.4497    0.2412 C   0  0  0  0  0  0  0  0  0  0  0  0
    1.2550   -1.1440    0.7638 C   0  0  0  0  0  0  0  0  0  0  0  0
   -2.8953   -0.1864   -2.0705 H   0  0  0  0  0  0  0  0  0  0  0  0
   -1.2227   -0.7888   -1.8120 H   0  0  0  0  0  0  0  0  0  0  0  0
   -2.5946   -1.4380   -0.8224 H   0  0  0  0  0  0  0  0  0  0  0  0
   -2.9375    0.7745    0.2310 H   0  0  0  0  0  0  0  0  0  0  0  0
   -1.7089    1.5209   -0.8156 H   0  0  0  0  0  0  0  0  0  0  0  0
   -1.6544    1.8009    2.1739 H   0  0  0  0  0  0  0  0  0  0  0  0
    0.0483    1.3128    2.4901 H   0  0  0  0  0  0  0  0  0  0  0  0
   -0.3371    2.3789    1.0865 H   0  0  0  0  0  0  0  0  0  0  0  0
   -1.4398   -1.5884    1.1243 H   0  0  0  0  0  0  0  0  0  0  0  0
    0.5066    1.5047   -1.2563 H   0  0  0  0  0  0  0  0  0  0  0  0
    2.7083    0.9369   -2.1662 H   0  0  0  0  0  0  0  0  0  0  0  0
    4.0100   -0.9454   -1.2215 H   0  0  0  0  0  0  0  0  0  0  0  0
    3.0947   -2.2585    0.6671 H   0  0  0  0  0  0  0  0  0  0  0  0
    0.8978   -1.7232    1.6048 H   0  0  0  0  0  0  0  0  0  0  0  0
  1  2  1  0
  2  3  1  0
  3  4  1  0
  3  5  1  0
  3  6  1  0
  6  7  2  0
  7  8  1  0
  8  9  2  0
  9 10  1  0
 10 11  2  0
 11  6  1  0
  1 12  1  0
  1 13  1  0
  1 14  1  0
  2 15  1  0
  2 16  1  0
  4 17  1  0
  4 18  1  0
  4 19  1  0
  5 20  1  0
  7 21  1  0
  8 22  1  0
  9 23  1  0
 10 24  1  0
 11 25  1  0
M  END
