
     RDKit          3D

 19 19  0  0  0  0  0  0  0  0999 V2000
    2.9987    0.2500   -0.1624 S   0  0  0  0  0  0  0  0  0  0  0  0
    1.2057    0.2149   -0.5013 C   0  0  0  0  0  0  0  0  0  0  0  0
    0.4769    1.2469    0.3747 C   0  0  0  0  0  0  0  0  0  0  0  0
   -1.0360    1.2061    0.1243 C   0  0  0  0  0  0  0  0  0  0  0  0
   -1.5947   -0.2037    0.3559 C   0  0  0  0  0  0  0  0  0  0  0  0
   -0.8672   -1.2349   -0.5161 C   0  0  0  0  0  0  0  0  0  0  0  0
    0.6460   -1.1976   -0.2666 C   0  0  0  0  0  0  0  0  0  0  0  0
    2.8594   -0.1147    1.1908 H   0  0  0  0  0  0  0  0  0  0  0  0
    1.0640    0.4857   -1.5710 H   0  0  0  0  0  0  0  0  0  0  0  0
    0.6758    1.0439    1.4502 H   0  0  0  0  0  0  0  0  0  0  0  0
    0.8556    2.2654    0.1409 H   0  0  0  0  0  0  0  0  0  0  0  0
   -1.2510    1.5264   -0.9190 H   0  0  0  0  0  0  0  0  0  0  0  0
   -1.5411    1.9182    0.8118 H   0  0  0  0  0  0  0  0  0  0  0  0
   -2.6781   -0.2139    0.1092 H   0  0  0  0  0  0  0  0  0  0  0  0
   -1.4849   -0.4774    1.4284 H   0  0  0  0  0  0  0  0  0  0  0  0
   -1.0743   -1.0292   -1.5894 H   0  0  0  0  0  0  0  0  0  0  0  0
   -1.2528   -2.2504   -0.2818 H   0  0  0  0  0  0  0  0  0  0  0  0
    1.1446   -1.9134   -0.9554 H   0  0  0  0  0  0  0  0  0  0  0  0
    0.8533   -1.5224    0.7769 H   0  0  0  0  0  0  0  0  0  0  0  0
  1  2  1  0
  2  3  1  0
  3  4  1  0
  4  5  1  0
  5  6  1  0
  6  7  1  0
  7  2  1  0
  1  8  1  0
  2  9  1  0
  3 10  1  0
  3 11  1  0
  4 12  1  0
  4 13  1  0
  5 14  1  0
  5 15  1  0
  6 16  1  0
  6 17  1  0
  7 18  1  0
  7 19  1  0
M  END
