
     RDKit          3D

 22 23  0  0  0  0  0  0  0  0999 V2000
   -3.6733    0.6465   -0.8189 O   0  0  0  0  0  0  0  0  0  0  0  0
   -3.1106    0.0228    0.3007 C   0  0  0  0  0  0  0  0  0  0  0  0
   -1.6521   -0.2290    0.0480 C   0  0  0  0  0  0  0  0  0  0  0  0
   -0.7012    0.7557    0.3599 C   0  0  0  0  0  0  0  0  0  0  0  0
    0.6592    0.5377    0.0934 C   0  0  0  0  0  0  0  0  0  0  0  0
    1.6165    1.5139    0.4117 C   0  0  0  0  0  0  0  0  0  0  0  0
    2.9687    1.2851    0.1411 C   0  0  0  0  0  0  0  0  0  0  0  0
    3.3751    0.0849   -0.4481 C   0  0  0  0  0  0  0  0  0  0  0  0
    2.4321   -0.8949   -0.7715 C   0  0  0  0  0  0  0  0  0  0  0  0
    1.0712   -0.6780   -0.5048 C   0  0  0  0  0  0  0  0  0  0  0  0
    0.1148   -1.6508   -0.8289 C   0  0  0  0  0  0  0  0  0  0  0  0
   -1.2376   -1.4243   -0.5597 C   0  0  0  0  0  0  0  0  0  0  0  0
   -4.6309    0.7904   -0.6015 H   0  0  0  0  0  0  0  0  0  0  0  0
   -3.6346   -0.9388    0.5009 H   0  0  0  0  0  0  0  0  0  0  0  0
   -3.2353    0.6712    1.1972 H   0  0  0  0  0  0  0  0  0  0  0  0
   -1.0228    1.6886    0.8094 H   0  0  0  0  0  0  0  0  0  0  0  0
    1.3200    2.4504    0.8688 H   0  0  0  0  0  0  0  0  0  0  0  0
    3.7037    2.0402    0.3886 H   0  0  0  0  0  0  0  0  0  0  0  0
    4.4236   -0.0861   -0.6554 H   0  0  0  0  0  0  0  0  0  0  0  0
    2.7651   -1.8189   -1.2291 H   0  0  0  0  0  0  0  0  0  0  0  0
    0.4120   -2.5836   -1.2932 H   0  0  0  0  0  0  0  0  0  0  0  0
   -1.9635   -2.1830   -0.8255 H   0  0  0  0  0  0  0  0  0  0  0  0
  1  2  1  0
  2  3  1  0
  3  4  2  0
  4  5  1  0
  5  6  2  0
  6  7  1  0
  7  8  2  0
  8  9  1  0
  9 10  2  0
 10 11  1  0
 11 12  2  0
 12  3  1  0
 10  5  1  0
  1 13  1  0
  2 14  1  0
  2 15  1  0
  4 16  1  0
  6 17  1  0
  7 18  1  0
  8 19  1  0
  9 20  1  0
 11 21  1  0
 12 22  1  0
M  END
