
     RDKit          3D

 19 19  0  0  0  0  0  0  0  0999 V2000
    3.1500    0.6726   -0.7536 C   0  0  0  0  0  0  0  0  0  0  0  0
    2.2756   -0.3265   -0.2391 O   0  0  0  0  0  0  0  0  0  0  0  0
    0.8905   -0.1637   -0.0801 C   0  0  0  0  0  0  0  0  0  0  0  0
    0.1458   -1.2327    0.4400 C   0  0  0  0  0  0  0  0  0  0  0  0
    0.7920   -2.4192    0.7830 O   0  0  0  0  0  0  0  0  0  0  0  0
   -1.2403   -1.1078    0.6134 C   0  0  0  0  0  0  0  0  0  0  0  0
   -1.8925    0.0835    0.2695 C   0  0  0  0  0  0  0  0  0  0  0  0
   -3.3060    0.2079    0.4476 N   0  0  0  0  0  0  0  0  0  0  0  0
   -1.1508    1.1519   -0.2498 C   0  0  0  0  0  0  0  0  0  0  0  0
    0.2307    1.0322   -0.4245 C   0  0  0  0  0  0  0  0  0  0  0  0
    4.1854    0.2751   -0.7688 H   0  0  0  0  0  0  0  0  0  0  0  0
    3.1245    1.5733   -0.1045 H   0  0  0  0  0  0  0  0  0  0  0  0
    2.8564    0.9397   -1.7907 H   0  0  0  0  0  0  0  0  0  0  0  0
    0.2837   -3.2102    1.1610 H   0  0  0  0  0  0  0  0  0  0  0  0
   -1.8085   -1.9375    1.0155 H   0  0  0  0  0  0  0  0  0  0  0  0
   -3.8011    1.0919    0.1941 H   0  0  0  0  0  0  0  0  0  0  0  0
   -3.8680   -0.5831    0.8341 H   0  0  0  0  0  0  0  0  0  0  0  0
   -1.6433    2.0778   -0.5194 H   0  0  0  0  0  0  0  0  0  0  0  0
    0.7757    1.8747   -0.8277 H   0  0  0  0  0  0  0  0  0  0  0  0
  1  2  1  0
  2  3  1  0
  3  4  2  0
  4  5  1  0
  4  6  1  0
  6  7  2  0
  7  8  1  0
  7  9  1  0
  9 10  2  0
 10  3  1  0
  1 11  1  0
  1 12  1  0
  1 13  1  0
  5 14  1  0
  6 15  1  0
  8 16  1  0
  8 17  1  0
  9 18  1  0
 10 19  1  0
M  END
