
     RDKit          3D

 20 20  0  0  0  0  0  0  0  0999 V2000
   -0.2222    2.2956   -0.7549 O   0  0  0  0  0  0  0  0  0  0  0  0
    0.5780    1.2100   -0.3921 C   0  0  0  0  0  0  0  0  0  0  0  0
    1.8681    1.4733    0.0848 C   0  0  0  0  0  0  0  0  0  0  0  0
    2.7073    0.4285    0.4761 C   0  0  0  0  0  0  0  0  0  0  0  0
    2.2630   -0.8911    0.3960 C   0  0  0  0  0  0  0  0  0  0  0  0
    0.9802   -1.1704   -0.0803 C   0  0  0  0  0  0  0  0  0  0  0  0
    0.1254   -0.1299   -0.4885 C   0  0  0  0  0  0  0  0  0  0  0  0
   -1.2593   -0.4725   -0.9852 C   0  0  0  0  0  0  0  0  0  0  0  0
   -2.2986   -0.1671    0.0578 C   0  0  0  0  0  0  0  0  0  0  0  0
   -2.3884   -0.8751    1.1876 C   0  0  0  0  0  0  0  0  0  0  0  0
   -1.1713    2.1997   -1.0901 H   0  0  0  0  0  0  0  0  0  0  0  0
    2.2195    2.4949    0.1565 H   0  0  0  0  0  0  0  0  0  0  0  0
    3.7018    0.6428    0.8454 H   0  0  0  0  0  0  0  0  0  0  0  0
    2.9130   -1.6997    0.7046 H   0  0  0  0  0  0  0  0  0  0  0  0
    0.6532   -2.2018   -0.1298 H   0  0  0  0  0  0  0  0  0  0  0  0
   -1.3290   -1.5465   -1.2657 H   0  0  0  0  0  0  0  0  0  0  0  0
   -1.4780    0.1003   -1.9108 H   0  0  0  0  0  0  0  0  0  0  0  0
   -3.0047    0.6386   -0.1197 H   0  0  0  0  0  0  0  0  0  0  0  0
   -1.7041   -1.6935    1.3898 H   0  0  0  0  0  0  0  0  0  0  0  0
   -3.1537   -0.6361    1.9187 H   0  0  0  0  0  0  0  0  0  0  0  0
  1  2  1  0
  2  3  2  0
  3  4  1  0
  4  5  2  0
  5  6  1  0
  6  7  2  0
  7  8  1  0
  8  9  1  0
  9 10  2  3
  7  2  1  0
  1 11  1  0
  3 12  1  0
  4 13  1  0
  5 14  1  0
  6 15  1  0
  8 16  1  0
  8 17  1  0
  9 18  1  0
 10 19  1  0
 10 20  1  0
M  END
