
     RDKit          3D

 15 15  0  0  0  0  0  0  0  0999 V2000
   -1.6565    1.7381   -0.1875 O   0  0  0  0  0  0  0  0  0  0  0  0
   -0.5568    0.8877   -0.0704 C   0  0  0  0  0  0  0  0  0  0  0  0
   -0.7369   -0.5105   -0.0521 C   0  0  0  0  0  0  0  0  0  0  0  0
   -2.0922   -1.0906   -0.1568 C   0  0  0  0  0  0  0  0  0  0  0  0
   -2.2682   -2.3380   -0.1418 O   0  0  0  0  0  0  0  0  0  0  0  0
    0.3889   -1.3468    0.0669 C   0  0  0  0  0  0  0  0  0  0  0  0
    1.6718   -0.7988    0.1660 C   0  0  0  0  0  0  0  0  0  0  0  0
    3.1909   -1.9455    0.3270 Br  0  0  0  0  0  0  0  0  0  0  0  0
    1.8431    0.5872    0.1472 C   0  0  0  0  0  0  0  0  0  0  0  0
    0.7342    1.4274    0.0296 C   0  0  0  0  0  0  0  0  0  0  0  0
   -1.5500    2.7457   -0.2027 H   0  0  0  0  0  0  0  0  0  0  0  0
   -2.9571   -0.4468   -0.2483 H   0  0  0  0  0  0  0  0  0  0  0  0
    0.2752   -2.4236    0.0831 H   0  0  0  0  0  0  0  0  0  0  0  0
    2.8349    1.0141    0.2237 H   0  0  0  0  0  0  0  0  0  0  0  0
    0.8785    2.5003    0.0161 H   0  0  0  0  0  0  0  0  0  0  0  0
  1  2  1  0
  2  3  2  0
  3  4  1  0
  4  5  2  0
  3  6  1  0
  6  7  2  0
  7  8  1  0
  7  9  1  0
  9 10  2  0
 10  2  1  0
  1 11  1  0
  4 12  1  0
  6 13  1  0
  9 14  1  0
 10 15  1  0
M  END
