
     RDKit          3D

 17 17  0  0  0  0  0  0  0  0999 V2000
    2.7947    1.2641    0.0141 C   0  0  0  0  0  0  0  0  0  0  0  0
    2.4987   -0.0296    0.1362 C   0  0  0  0  0  0  0  0  0  0  0  0
    1.4650   -0.6093    1.4835 S   0  0  0  0  0  0  0  0  0  0  0  0
   -0.0388   -0.4544    0.5203 C   0  0  0  0  0  0  0  0  0  0  0  0
   -0.7677    0.7418    0.5439 C   0  0  0  0  0  0  0  0  0  0  0  0
   -1.9422    0.8609   -0.2063 C   0  0  0  0  0  0  0  0  0  0  0  0
   -2.3918   -0.2151   -0.9783 C   0  0  0  0  0  0  0  0  0  0  0  0
   -1.6676   -1.4114   -1.0001 C   0  0  0  0  0  0  0  0  0  0  0  0
   -0.4928   -1.5324   -0.2507 C   0  0  0  0  0  0  0  0  0  0  0  0
    3.4227    1.6037   -0.8029 H   0  0  0  0  0  0  0  0  0  0  0  0
    2.4112    1.9896    0.7245 H   0  0  0  0  0  0  0  0  0  0  0  0
    2.8896   -0.7454   -0.5797 H   0  0  0  0  0  0  0  0  0  0  0  0
   -0.4244    1.5782    1.1394 H   0  0  0  0  0  0  0  0  0  0  0  0
   -2.5034    1.7861   -0.1892 H   0  0  0  0  0  0  0  0  0  0  0  0
   -3.3007   -0.1222   -1.5585 H   0  0  0  0  0  0  0  0  0  0  0  0
   -2.0165   -2.2440   -1.5970 H   0  0  0  0  0  0  0  0  0  0  0  0
    0.0639   -2.4606   -0.2718 H   0  0  0  0  0  0  0  0  0  0  0  0
  1  2  2  3
  2  3  1  0
  3  4  1  0
  4  5  2  0
  5  6  1  0
  6  7  2  0
  7  8  1  0
  8  9  2  0
  9  4  1  0
  1 10  1  0
  1 11  1  0
  2 12  1  0
  5 13  1  0
  6 14  1  0
  7 15  1  0
  8 16  1  0
  9 17  1  0
M  END
