
     RDKit          3D

 19 19  0  0  0  0  0  0  0  0999 V2000
   -2.2099    1.2994    0.7885 O   0  0  0  0  0  0  0  0  0  0  0  0
   -2.3310    0.4466   -0.3164 C   0  0  0  0  0  0  0  0  0  0  0  0
   -1.5075   -0.8220   -0.0942 C   0  0  0  0  0  0  0  0  0  0  0  0
   -0.0355   -0.5116   -0.0120 C   0  0  0  0  0  0  0  0  0  0  0  0
    0.5761   -0.2912    1.2335 C   0  0  0  0  0  0  0  0  0  0  0  0
    1.9365    0.0245    1.3045 C   0  0  0  0  0  0  0  0  0  0  0  0
    2.6943    0.1302    0.1336 C   0  0  0  0  0  0  0  0  0  0  0  0
    4.4002    0.5281    0.2246 Cl  0  0  0  0  0  0  0  0  0  0  0  0
    2.0891   -0.0772   -1.1103 C   0  0  0  0  0  0  0  0  0  0  0  0
    0.7290   -0.3930   -1.1845 C   0  0  0  0  0  0  0  0  0  0  0  0
   -2.7564    2.1007    0.5784 H   0  0  0  0  0  0  0  0  0  0  0  0
   -3.3983    0.1622   -0.4508 H   0  0  0  0  0  0  0  0  0  0  0  0
   -1.9842    0.9647   -1.2390 H   0  0  0  0  0  0  0  0  0  0  0  0
   -1.8494   -1.3274    0.8356 H   0  0  0  0  0  0  0  0  0  0  0  0
   -1.6934   -1.5265   -0.9341 H   0  0  0  0  0  0  0  0  0  0  0  0
   -0.0002   -0.3622    2.1477 H   0  0  0  0  0  0  0  0  0  0  0  0
    2.3993    0.1894    2.2691 H   0  0  0  0  0  0  0  0  0  0  0  0
    2.6703    0.0088   -2.0196 H   0  0  0  0  0  0  0  0  0  0  0  0
    0.2710   -0.5435   -2.1543 H   0  0  0  0  0  0  0  0  0  0  0  0
  1  2  1  0
  2  3  1  0
  3  4  1  0
  4  5  2  0
  5  6  1  0
  6  7  2  0
  7  8  1  0
  7  9  1  0
  9 10  2  0
 10  4  1  0
  1 11  1  0
  2 12  1  0
  2 13  1  0
  3 14  1  0
  3 15  1  0
  5 16  1  0
  6 17  1  0
  9 18  1  0
 10 19  1  0
M  END
