
     RDKit          3D

 15 15  0  0  0  0  0  0  0  0999 V2000
   -2.0393    0.9414    0.1200 N   0  0  0  0  0  0  0  0  0  0  0  0
   -0.6855    0.4774    0.0272 C   0  0  0  0  0  0  0  0  0  0  0  0
   -0.3704   -0.8977    0.1089 C   0  0  0  0  0  0  0  0  0  0  0  0
    0.9658   -1.3126    0.0138 C   0  0  0  0  0  0  0  0  0  0  0  0
    1.9850   -0.3734   -0.1610 C   0  0  0  0  0  0  0  0  0  0  0  0
    1.6773    0.9857   -0.2421 C   0  0  0  0  0  0  0  0  0  0  0  0
    0.3493    1.4100   -0.1486 C   0  0  0  0  0  0  0  0  0  0  0  0
   -1.3964   -1.8953    0.2892 C   0  0  0  0  0  0  0  0  0  0  0  0
   -2.2190   -2.6964    0.4338 N   0  0  0  0  0  0  0  0  0  0  0  0
   -2.2559    1.9613    0.0578 H   0  0  0  0  0  0  0  0  0  0  0  0
   -2.8397    0.2844    0.2507 H   0  0  0  0  0  0  0  0  0  0  0  0
    1.2199   -2.3643    0.0750 H   0  0  0  0  0  0  0  0  0  0  0  0
    3.0145   -0.6997   -0.2337 H   0  0  0  0  0  0  0  0  0  0  0  0
    2.4686    1.7117   -0.3776 H   0  0  0  0  0  0  0  0  0  0  0  0
    0.1258    2.4675   -0.2132 H   0  0  0  0  0  0  0  0  0  0  0  0
  1  2  1  0
  2  3  2  0
  3  4  1  0
  4  5  2  0
  5  6  1  0
  6  7  2  0
  3  8  1  0
  8  9  3  0
  7  2  1  0
  1 10  1  0
  1 11  1  0
  4 12  1  0
  5 13  1  0
  6 14  1  0
  7 15  1  0
M  END
