
     RDKit          3D

 18 18  0  0  0  0  0  0  0  0999 V2000
   -1.8808   -1.4332   -0.3321 C   0  0  0  0  0  0  0  0  0  0  0  0
   -0.6146   -0.6230   -0.2466 C   0  0  0  0  0  0  0  0  0  0  0  0
   -0.5015    0.5088    0.6046 C   0  0  0  0  0  0  0  0  0  0  0  0
    0.7279    1.1884    0.6774 C   0  0  0  0  0  0  0  0  0  0  0  0
    1.8178    0.7860   -0.0982 C   0  0  0  0  0  0  0  0  0  0  0  0
    3.0195    1.4853   -0.0106 O   0  0  0  0  0  0  0  0  0  0  0  0
    1.6927   -0.3095   -0.9566 C   0  0  0  0  0  0  0  0  0  0  0  0
    0.4868   -1.0071   -1.0315 C   0  0  0  0  0  0  0  0  0  0  0  0
   -1.6045    0.9777    1.4034 N   0  0  0  0  0  4  0  0  0  0  0  0
   -1.3646    1.6629    2.5724 O   0  0  0  0  0  1  0  0  0  0  0  0
   -2.7759    0.9124    0.9779 O   0  0  0  0  0  0  0  0  0  0  0  0
   -2.6374   -0.8839   -0.9303 H   0  0  0  0  0  0  0  0  0  0  0  0
   -2.2780   -1.6348    0.6850 H   0  0  0  0  0  0  0  0  0  0  0  0
   -1.7015   -2.4165   -0.8171 H   0  0  0  0  0  0  0  0  0  0  0  0
    0.8370    2.0491    1.3253 H   0  0  0  0  0  0  0  0  0  0  0  0
    3.8282    1.2200   -0.5606 H   0  0  0  0  0  0  0  0  0  0  0  0
    2.5316   -0.6247   -1.5641 H   0  0  0  0  0  0  0  0  0  0  0  0
    0.4172   -1.8578   -1.6984 H   0  0  0  0  0  0  0  0  0  0  0  0
  1  2  1  0
  2  3  2  0
  3  4  1  0
  4  5  2  0
  5  6  1  0
  5  7  1  0
  7  8  2  0
  3  9  1  0
  9 10  1  0
  9 11  2  0
  8  2  1  0
  1 12  1  0
  1 13  1  0
  1 14  1  0
  4 15  1  0
  6 16  1  0
  7 17  1  0
  8 18  1  0
M  CHG  2   9   1  10  -1
M  END
