
     RDKit          3D

 22 22  0  0  0  0  0  0  0  0999 V2000
    3.3349   -0.1784    2.3150 N   0  0  0  0  0  0  0  0  0  0  0  0
    2.8539    0.2562    1.3564 C   0  0  0  0  0  0  0  0  0  0  0  0
    2.2423    0.8076    0.1404 C   0  0  0  0  0  0  0  0  0  0  0  0
    1.8756   -0.2983   -0.8606 C   0  0  0  0  0  0  0  0  0  0  0  0
    0.7896   -1.2617   -0.3501 C   0  0  0  0  0  0  0  0  0  0  0  0
   -0.5340   -0.5695   -0.1468 C   0  0  0  0  0  0  0  0  0  0  0  0
   -0.9503   -0.1926    1.1415 C   0  0  0  0  0  0  0  0  0  0  0  0
   -2.1686    0.4695    1.3223 C   0  0  0  0  0  0  0  0  0  0  0  0
   -2.9770    0.7627    0.2207 C   0  0  0  0  0  0  0  0  0  0  0  0
   -2.5676    0.3960   -1.0643 C   0  0  0  0  0  0  0  0  0  0  0  0
   -1.3498   -0.2658   -1.2497 C   0  0  0  0  0  0  0  0  0  0  0  0
    1.3460    1.4020    0.4145 H   0  0  0  0  0  0  0  0  0  0  0  0
    2.9724    1.4957   -0.3354 H   0  0  0  0  0  0  0  0  0  0  0  0
    1.5297    0.1748   -1.8055 H   0  0  0  0  0  0  0  0  0  0  0  0
    2.7884   -0.8846   -1.1061 H   0  0  0  0  0  0  0  0  0  0  0  0
    0.6587   -2.0750   -1.0968 H   0  0  0  0  0  0  0  0  0  0  0  0
    1.1249   -1.7514    0.5900 H   0  0  0  0  0  0  0  0  0  0  0  0
   -0.3305   -0.4067    2.0034 H   0  0  0  0  0  0  0  0  0  0  0  0
   -2.4849    0.7574    2.3166 H   0  0  0  0  0  0  0  0  0  0  0  0
   -3.9193    1.2759    0.3624 H   0  0  0  0  0  0  0  0  0  0  0  0
   -3.1930    0.6264   -1.9171 H   0  0  0  0  0  0  0  0  0  0  0  0
   -1.0413   -0.5404   -2.2509 H   0  0  0  0  0  0  0  0  0  0  0  0
  1  2  3  0
  2  3  1  0
  3  4  1  0
  4  5  1  0
  5  6  1  0
  6  7  2  0
  7  8  1  0
  8  9  2  0
  9 10  1  0
 10 11  2  0
 11  6  1  0
  3 12  1  0
  3 13  1  0
  4 14  1  0
  4 15  1  0
  5 16  1  0
  5 17  1  0
  7 18  1  0
  8 19  1  0
  9 20  1  0
 10 21  1  0
 11 22  1  0
M  END
