
     RDKit          3D

 35 34  0  0  0  0  0  0  0  0999 V2000
   -5.6840    0.1830    0.0921 C   0  0  0  0  0  0  0  0  0  0  0  0
   -4.3884    0.0093    0.8758 C   0  0  0  0  0  0  0  0  0  0  0  0
   -3.2599    0.0953    0.0086 O   0  0  0  0  0  0  0  0  0  0  0  0
   -2.8699   -0.9358   -0.8533 C   0  0  0  0  0  0  0  0  0  0  0  0
   -3.4899   -2.0342   -0.8689 O   0  0  0  0  0  0  0  0  0  0  0  0
   -1.6712   -0.7476   -1.7304 C   0  0  0  0  0  0  0  0  0  0  0  0
   -0.4135   -1.3930   -1.1283 C   0  0  0  0  0  0  0  0  0  0  0  0
    0.0013   -0.8268    0.2451 C   0  0  0  0  0  0  0  0  0  0  0  0
    0.2978    0.6865    0.2658 C   0  0  0  0  0  0  0  0  0  0  0  0
    1.4202    1.1278   -0.6859 C   0  0  0  0  0  0  0  0  0  0  0  0
    2.7249    0.4747   -0.3496 C   0  0  0  0  0  0  0  0  0  0  0  0
    3.1615   -0.4618   -1.0730 O   0  0  0  0  0  0  0  0  0  0  0  0
    3.4266    0.8880    0.7884 O   0  0  0  0  0  0  0  0  0  0  0  0
    4.6827    0.3371    1.1788 C   0  0  0  0  0  0  0  0  0  0  0  0
    5.8039    0.8748    0.2971 C   0  0  0  0  0  0  0  0  0  0  0  0
   -5.8066   -0.6408   -0.6416 H   0  0  0  0  0  0  0  0  0  0  0  0
   -5.6728    1.1533   -0.4479 H   0  0  0  0  0  0  0  0  0  0  0  0
   -6.5472    0.1695    0.7904 H   0  0  0  0  0  0  0  0  0  0  0  0
   -4.3165    0.8208    1.6302 H   0  0  0  0  0  0  0  0  0  0  0  0
   -4.3896   -0.9631    1.4148 H   0  0  0  0  0  0  0  0  0  0  0  0
   -1.8738   -1.2161   -2.7176 H   0  0  0  0  0  0  0  0  0  0  0  0
   -1.5041    0.3337   -1.9170 H   0  0  0  0  0  0  0  0  0  0  0  0
    0.4266   -1.2883   -1.8464 H   0  0  0  0  0  0  0  0  0  0  0  0
   -0.5931   -2.4847   -1.0154 H   0  0  0  0  0  0  0  0  0  0  0  0
   -0.8014   -1.0385    0.9839 H   0  0  0  0  0  0  0  0  0  0  0  0
    0.9001   -1.3783    0.5960 H   0  0  0  0  0  0  0  0  0  0  0  0
   -0.6254    1.2538    0.0249 H   0  0  0  0  0  0  0  0  0  0  0  0
    0.5773    0.9727    1.3035 H   0  0  0  0  0  0  0  0  0  0  0  0
    1.1421    0.9210   -1.7410 H   0  0  0  0  0  0  0  0  0  0  0  0
    1.5479    2.2277   -0.5967 H   0  0  0  0  0  0  0  0  0  0  0  0
    4.6510   -0.7732    1.1298 H   0  0  0  0  0  0  0  0  0  0  0  0
    4.8851    0.6296    2.2306 H   0  0  0  0  0  0  0  0  0  0  0  0
    5.8254    1.9840    0.3464 H   0  0  0  0  0  0  0  0  0  0  0  0
    6.7792    0.4797    0.6512 H   0  0  0  0  0  0  0  0  0  0  0  0
    5.6534    0.5599   -0.7565 H   0  0  0  0  0  0  0  0  0  0  0  0
  1  2  1  0
  2  3  1  0
  3  4  1  0
  4  5  2  0
  4  6  1  0
  6  7  1  0
  7  8  1  0
  8  9  1  0
  9 10  1  0
 10 11  1  0
 11 12  2  0
 11 13  1  0
 13 14  1  0
 14 15  1  0
  1 16  1  0
  1 17  1  0
  1 18  1  0
  2 19  1  0
  2 20  1  0
  6 21  1  0
  6 22  1  0
  7 23  1  0
  7 24  1  0
  8 25  1  0
  8 26  1  0
  9 27  1  0
  9 28  1  0
 10 29  1  0
 10 30  1  0
 14 31  1  0
 14 32  1  0
 15 33  1  0
 15 34  1  0
 15 35  1  0
M  END
