
     RDKit          3D

 28 27  0  0  0  0  0  0  0  0999 V2000
    3.6003   -0.6732    0.0510 C   0  0  0  0  0  0  0  0  0  0  0  0
    3.2256    0.6402    0.7347 C   0  0  0  0  0  0  0  0  0  0  0  0
    1.7095    0.8974    0.7593 C   0  0  0  0  0  0  0  0  0  0  0  0
    1.1111    1.1862   -0.6271 C   0  0  0  0  0  0  0  0  0  0  0  0
    0.5799   -0.3376   -1.4533 S   0  0  0  0  0  4  0  0  0  0  0  0
    0.7150   -0.0065   -2.9336 O   0  0  0  0  0  0  0  0  0  0  0  0
   -1.2107   -0.4363   -1.2141 C   0  0  0  0  0  0  0  0  0  0  0  0
   -1.5465   -0.7559    0.2461 C   0  0  0  0  0  0  0  0  0  0  0  0
   -3.0376   -1.0599    0.4544 C   0  0  0  0  0  0  0  0  0  0  0  0
   -3.9204    0.1759    0.2832 C   0  0  0  0  0  0  0  0  0  0  0  0
    4.6805   -0.8764    0.2088 H   0  0  0  0  0  0  0  0  0  0  0  0
    3.4199   -0.6077   -1.0418 H   0  0  0  0  0  0  0  0  0  0  0  0
    3.0157   -1.5160    0.4774 H   0  0  0  0  0  0  0  0  0  0  0  0
    3.5888    0.6007    1.7846 H   0  0  0  0  0  0  0  0  0  0  0  0
    3.7487    1.4830    0.2328 H   0  0  0  0  0  0  0  0  0  0  0  0
    1.5350    1.7898    1.3990 H   0  0  0  0  0  0  0  0  0  0  0  0
    1.1871    0.0472    1.2480 H   0  0  0  0  0  0  0  0  0  0  0  0
    1.8466    1.7213   -1.2652 H   0  0  0  0  0  0  0  0  0  0  0  0
    0.2289    1.8514   -0.5127 H   0  0  0  0  0  0  0  0  0  0  0  0
   -1.6050   -1.2369   -1.8756 H   0  0  0  0  0  0  0  0  0  0  0  0
   -1.6667    0.5303   -1.5141 H   0  0  0  0  0  0  0  0  0  0  0  0
   -0.9643   -1.6496    0.5603 H   0  0  0  0  0  0  0  0  0  0  0  0
   -1.2462    0.0927    0.8976 H   0  0  0  0  0  0  0  0  0  0  0  0
   -3.3684   -1.8546   -0.2491 H   0  0  0  0  0  0  0  0  0  0  0  0
   -3.1760   -1.4468    1.4872 H   0  0  0  0  0  0  0  0  0  0  0  0
   -4.9671   -0.0783    0.5529 H   0  0  0  0  0  0  0  0  0  0  0  0
   -3.9098    0.5231   -0.7707 H   0  0  0  0  0  0  0  0  0  0  0  0
   -3.5739    0.9963    0.9471 H   0  0  0  0  0  0  0  0  0  0  0  0
  1  2  1  0
  2  3  1  0
  3  4  1  0
  4  5  1  0
  5  6  2  0
  5  7  1  0
  7  8  1  0
  8  9  1  0
  9 10  1  0
  1 11  1  0
  1 12  1  0
  1 13  1  0
  2 14  1  0
  2 15  1  0
  3 16  1  0
  3 17  1  0
  4 18  1  0
  4 19  1  0
  7 20  1  0
  7 21  1  0
  8 22  1  0
  8 23  1  0
  9 24  1  0
  9 25  1  0
 10 26  1  0
 10 27  1  0
 10 28  1  0
M  END
