
     RDKit          3D

 11 11  0  0  0  0  0  0  0  0999 V2000
   -2.2928   -2.3609   -0.0077 Cl  0  0  0  0  0  0  0  0  0  0  0  0
   -0.9997   -1.1719   -0.0080 C   0  0  0  0  0  0  0  0  0  0  0  0
    0.2848   -1.6089   -0.0607 N   0  0  0  0  0  0  0  0  0  0  0  0
    1.3409   -0.7555   -0.0647 C   0  0  0  0  0  0  0  0  0  0  0  0
    1.1227    0.6300   -0.0133 C   0  0  0  0  0  0  0  0  0  0  0  0
    2.4879    1.7468   -0.0180 Cl  0  0  0  0  0  0  0  0  0  0  0  0
   -0.1968    1.1120    0.0419 C   0  0  0  0  0  0  0  0  0  0  0  0
   -1.2704    0.2043    0.0447 C   0  0  0  0  0  0  0  0  0  0  0  0
   -2.9355    0.7820    0.1134 Cl  0  0  0  0  0  0  0  0  0  0  0  0
   -0.5041    2.8481    0.1074 Cl  0  0  0  0  0  0  0  0  0  0  0  0
    2.9630   -1.4259   -0.1351 Cl  0  0  0  0  0  0  0  0  0  0  0  0
  1  2  1  0
  2  3  2  0
  3  4  1  0
  4  5  2  0
  5  6  1  0
  5  7  1  0
  7  8  2  0
  8  9  1  0
  7 10  1  0
  4 11  1  0
  8  2  1  0
M  END
