
     RDKit          3D

 13 12  0  0  0  0  0  0  0  0999 V2000
    2.9621   -0.2502   -1.0555 C   0  0  0  0  0  0  0  0  0  0  0  0
    1.9345    0.0754   -0.2826 C   0  0  0  0  0  0  0  0  0  0  0  0
    0.6309   -0.1723   -0.7178 O   0  0  0  0  0  0  0  0  0  0  0  0
   -0.5001    0.1432    0.0411 C   0  0  0  0  0  0  0  0  0  0  0  0
   -0.3830    0.6780    1.1788 O   0  0  0  0  0  0  0  0  0  0  0  0
   -1.8302   -0.1598   -0.5106 C   0  0  0  0  0  0  0  0  0  0  0  0
   -2.9576    0.1081    0.1460 C   0  0  0  0  0  0  0  0  0  0  0  0
    3.9746   -0.0607   -0.7235 H   0  0  0  0  0  0  0  0  0  0  0  0
    2.7988   -0.7073   -2.0231 H   0  0  0  0  0  0  0  0  0  0  0  0
    2.1209    0.5320    0.6823 H   0  0  0  0  0  0  0  0  0  0  0  0
   -1.8916   -0.6188   -1.4895 H   0  0  0  0  0  0  0  0  0  0  0  0
   -2.9467    0.5662    1.1269 H   0  0  0  0  0  0  0  0  0  0  0  0
   -3.9126   -0.1337   -0.3020 H   0  0  0  0  0  0  0  0  0  0  0  0
  1  2  2  3
  2  3  1  0
  3  4  1  0
  4  5  2  0
  4  6  1  0
  6  7  2  3
  1  8  1  0
  1  9  1  0
  2 10  1  0
  6 11  1  0
  7 12  1  0
  7 13  1  0
M  END
